* NGSPICE file created from Temperature_Sensor.ext - technology: sky130A

.subckt Temperature_Sensor vtemp vss vdd
X0 a_n3070_n3662.t10 a_n3836_n1894.t3 vdd.t27 vss.t20 sky130_fd_pr__nfet_01v8_lvt ad=1.2 pd=8.6 as=0.58 ps=4.29 w=4 l=2
X1 a_n3070_n3662.t9 a_n3836_n1894.t4 vdd.t22 vss.t17 sky130_fd_pr__nfet_01v8_lvt ad=1.2 pd=8.6 as=0.58 ps=4.29 w=4 l=2
X2 a_n5752_n3086# a_n5752_n2774# a_n5810_n2748# vdd.t19 sky130_fd_pr__pfet_01v8_lvt ad=0.6 pd=4.6 as=0.58 ps=4.58 w=2 l=2
X3 a_n178_n2405.t10 a_n178_n2405.t9 vdd.t9 vdd.t8 sky130_fd_pr__pfet_01v8_lvt ad=0.725 pd=5.29 as=1.5 ps=10.6 w=5 l=2
X4 a_n3216_n2108.t0 a_n3836_n1894.t1 a_n3836_n1894.t2 vss.t21 sky130_fd_pr__nfet_01v8_lvt ad=1.2 pd=8.6 as=1.16 ps=8.58 w=4 l=2
X5 vdd.t3 a_n178_n2405.t7 a_n178_n2405.t8 vdd.t2 sky130_fd_pr__pfet_01v8_lvt ad=1.5 pd=10.6 as=0.725 ps=5.29 w=5 l=2
X6 vdd.t20 a_n3836_n1894.t5 a_n3070_n3662.t8 vss.t18 sky130_fd_pr__nfet_01v8_lvt ad=0.58 pd=4.29 as=1.2 ps=8.6 w=4 l=2
X7 a_n178_n2405.t6 a_n178_n2405.t5 vdd.t33 vdd.t32 sky130_fd_pr__pfet_01v8_lvt ad=0.725 pd=5.29 as=1.5 ps=10.6 w=5 l=2
X8 vss.t16 a_n5752_n2774# a_n5752_n2774# vss.t15 sky130_fd_pr__nfet_01v8_lvt ad=0.145 pd=1.58 as=0.15 ps=1.6 w=0.5 l=2
X9 vtemp.t3 a_n3070_n3662.t11 a_62_n3136# vss.t4 sky130_fd_pr__nfet_01v8_lvt ad=0.145 pd=1.29 as=0.3 ps=2.6 w=1 l=0.5
X10 a_62_n3136# a_n3216_n2108.t2 a_n178_n2405.t1 vss.t5 sky130_fd_pr__nfet_01v8_lvt ad=0.3 pd=2.6 as=0.145 ps=1.29 w=1 l=2
X11 vdd.t26 a_n3836_n1894.t6 a_n3070_n3662.t7 vss.t19 sky130_fd_pr__nfet_01v8_lvt ad=0.58 pd=4.29 as=1.2 ps=8.6 w=4 l=2
X12 vss.t14 a_n5752_n2774# a_62_n3136# vss.t13 sky130_fd_pr__nfet_01v8 ad=1.5 pd=10.6 as=1.45 ps=10.6 w=5 l=2
X13 vss.t12 a_n5752_n2774# a_62_n3136# vss.t11 sky130_fd_pr__nfet_01v8 ad=1.5 pd=10.6 as=0.725 ps=5.29 w=5 l=2
X14 vss.t28 vss.t27 a_n3216_n2108.t1 sky130_fd_pr__pnp_05v5_W3p40L3p40
X15 a_n5752_n1958# a_n5752_n1958# vdd.t15 vdd.t14 sky130_fd_pr__pfet_01v8_lvt ad=0.58 pd=4.58 as=0.6 ps=4.6 w=2 l=2
X16 vdd.t24 a_n3836_n1894.t7 a_n3070_n3662.t6 vss.t17 sky130_fd_pr__nfet_01v8_lvt ad=1.16 pd=8.58 as=1.2 ps=8.6 w=4 l=2
X17 a_n3070_n3662.t5 a_n3836_n1894.t8 vdd.t25 vss.t20 sky130_fd_pr__nfet_01v8_lvt ad=1.2 pd=8.6 as=0.58 ps=4.29 w=4 l=2
X18 vss.t26 vss.t25 a_n3070_n3662.t0 sky130_fd_pr__pnp_05v5_W3p40L3p40
X19 a_62_n3136# a_n3216_n2108.t3 a_n178_n2405.t2 vss.t6 sky130_fd_pr__nfet_01v8_lvt ad=0.3 pd=2.6 as=0.145 ps=1.29 w=1 l=2
X20 a_62_n3136# a_n5752_n2774# vss.t10 vss.t9 sky130_fd_pr__nfet_01v8 ad=0.725 pd=5.29 as=1.5 ps=10.6 w=5 l=2
X21 vdd.t5 a_n178_n2405.t12 vtemp.t7 vdd.t4 sky130_fd_pr__pfet_01v8_lvt ad=1.5 pd=10.6 as=0.725 ps=5.29 w=5 l=2
X22 vtemp.t6 a_n178_n2405.t13 vdd.t11 vdd.t10 sky130_fd_pr__pfet_01v8_lvt ad=0.725 pd=5.29 as=1.5 ps=10.6 w=5 l=2
X23 vtemp.t2 a_n3070_n3662.t12 a_62_n3136# vss.t3 sky130_fd_pr__nfet_01v8_lvt ad=0.145 pd=1.29 as=0.3 ps=2.6 w=1 l=0.5
X24 a_n178_n2405.t11 a_n3216_n2108.t4 a_62_n3136# vss.t24 sky130_fd_pr__nfet_01v8_lvt ad=0.145 pd=1.29 as=0.3 ps=2.6 w=1 l=2
X25 a_n178_n2405.t0 a_n3216_n2108.t5 a_62_n3136# vss.t0 sky130_fd_pr__nfet_01v8_lvt ad=0.145 pd=1.29 as=0.3 ps=2.6 w=1 l=2
X26 a_n3070_n3662.t4 a_n3836_n1894.t9 vdd.t29 vss.t17 sky130_fd_pr__nfet_01v8_lvt ad=1.2 pd=8.6 as=0.58 ps=4.29 w=4 l=2
X27 a_n3836_n1894.t0 a_n5752_n2774# vdd.t18 vdd.t17 sky130_fd_pr__pfet_01v8_lvt ad=0.58 pd=4.58 as=0.6 ps=4.6 w=2 l=2
X28 a_n5752_n1958# a_n5752_n2774# a_n5752_n2774# vdd.t16 sky130_fd_pr__pfet_01v8_lvt ad=0.58 pd=4.58 as=0.6 ps=4.6 w=2 l=2
X29 a_n5752_n3086# a_n5752_n3086# vss.t23 vss.t22 sky130_fd_pr__nfet_01v8_lvt ad=0.15 pd=1.6 as=0.145 ps=1.58 w=0.5 l=2
X30 a_62_n3136# a_n3070_n3662.t13 vtemp.t1 vss.t2 sky130_fd_pr__nfet_01v8_lvt ad=0.3 pd=2.6 as=0.145 ps=1.29 w=1 l=0.5
X31 vdd.t28 a_n3836_n1894.t10 a_n3070_n3662.t3 vss.t19 sky130_fd_pr__nfet_01v8_lvt ad=0.58 pd=4.29 as=1.2 ps=8.6 w=4 l=2
X32 vdd.t23 a_n3836_n1894.t11 a_n3070_n3662.t2 vss.t18 sky130_fd_pr__nfet_01v8_lvt ad=0.58 pd=4.29 as=1.2 ps=8.6 w=4 l=2
X33 vdd.t13 a_n5752_n1958# a_n5810_n2748# vdd.t12 sky130_fd_pr__pfet_01v8_lvt ad=0.6 pd=4.6 as=0.58 ps=4.58 w=2 l=2
X34 vtemp.t5 a_n178_n2405.t14 vdd.t1 vdd.t0 sky130_fd_pr__pfet_01v8_lvt ad=0.725 pd=5.29 as=1.5 ps=10.6 w=5 l=2
X35 a_62_n3136# a_n5752_n2774# vss.t8 vss.t7 sky130_fd_pr__nfet_01v8 ad=1.45 pd=10.6 as=1.5 ps=10.6 w=5 l=2
X36 vdd.t31 a_n178_n2405.t15 vtemp.t4 vdd.t30 sky130_fd_pr__pfet_01v8_lvt ad=1.5 pd=10.6 as=0.725 ps=5.29 w=5 l=2
X37 vdd.t7 a_n178_n2405.t3 a_n178_n2405.t4 vdd.t6 sky130_fd_pr__pfet_01v8_lvt ad=1.5 pd=10.6 as=0.725 ps=5.29 w=5 l=2
X38 a_62_n3136# a_n3070_n3662.t14 vtemp.t0 vss.t1 sky130_fd_pr__nfet_01v8_lvt ad=0.3 pd=2.6 as=0.145 ps=1.29 w=1 l=0.5
X39 vdd.t21 a_n3836_n1894.t12 a_n3070_n3662.t1 vss.t17 sky130_fd_pr__nfet_01v8_lvt ad=1.16 pd=8.58 as=1.2 ps=8.6 w=4 l=2
R0 a_n3836_n1894.n4 a_n3836_n1894.t12 54.8313
R1 a_n3836_n1894.n1 a_n3836_n1894.t9 54.8313
R2 a_n3836_n1894.n2 a_n3836_n1894.t11 54.8313
R3 a_n3836_n1894.n0 a_n3836_n1894.t3 54.8313
R4 a_n3836_n1894.n0 a_n3836_n1894.t8 54.8309
R5 a_n3836_n1894.n1 a_n3836_n1894.t4 54.8309
R6 a_n3836_n1894.n3 a_n3836_n1894.t6 54.8306
R7 a_n3836_n1894.n3 a_n3836_n1894.t10 54.8306
R8 a_n3836_n1894.n2 a_n3836_n1894.t5 54.8306
R9 a_n3836_n1894.n4 a_n3836_n1894.t7 54.8306
R10 a_n3836_n1894.n8 a_n3836_n1894.t1 54.8305
R11 a_n3836_n1894.n9 a_n3836_n1894.t0 14.3139
R12 a_n3836_n1894.t2 a_n3836_n1894.n9 4.35262
R13 a_n3836_n1894.n1 a_n3836_n1894.n4 1.48142
R14 a_n3836_n1894.n9 a_n3836_n1894.n8 1.41958
R15 a_n3836_n1894.n2 a_n3836_n1894.n1 1.3917
R16 a_n3836_n1894.n3 a_n3836_n1894.n0 1.39134
R17 a_n3836_n1894.n8 a_n3836_n1894.n3 1.26382
R18 a_n3836_n1894.n7 a_n3836_n1894.n6 1.263
R19 a_n3836_n1894.n0 a_n3836_n1894.n2 1.263
R20 a_n3836_n1894.n3 a_n3836_n1894.n7 0.955675
R21 a_n3836_n1894.n6 a_n3836_n1894.n5 0.954667
R22 vdd.n422 vdd.t14 512.189
R23 vdd.n422 vdd.t12 512.189
R24 vdd.n427 vdd.t16 512.189
R25 vdd.n427 vdd.t19 512.189
R26 vdd.n400 vdd.t17 512.189
R27 vdd.n7 vdd.t6 247.72
R28 vdd.n72 vdd.t8 247.72
R29 vdd.n72 vdd.t30 247.72
R30 vdd.n151 vdd.t10 247.72
R31 vdd.n151 vdd.t2 247.72
R32 vdd.n230 vdd.t32 247.72
R33 vdd.n230 vdd.t4 247.72
R34 vdd.n309 vdd.t0 247.72
R35 vdd.n11 vdd.n8 20.6743
R36 vdd.n399 vdd.n398 16.6308
R37 vdd.n1 vdd.n0 16.6013
R38 vdd.n311 vdd.n310 16.5774
R39 vdd.n424 vdd.n423 16.318
R40 vdd.n426 vdd.n425 16.318
R41 vdd.n74 vdd.n73 16.289
R42 vdd.n153 vdd.n152 16.289
R43 vdd.n232 vdd.n231 16.289
R44 vdd.n462 vdd.t13 14.2849
R45 vdd.n462 vdd.t15 14.2849
R46 vdd.n413 vdd.t18 14.2849
R47 vdd.n405 vdd.n401 12.9284
R48 vdd.n316 vdd.n312 12.9279
R49 vdd.n237 vdd.n233 12.9133
R50 vdd.n158 vdd.n154 12.9133
R51 vdd.n79 vdd.n75 12.9133
R52 vdd.n432 vdd.n428 12.8695
R53 vdd.n441 vdd.n440 9.3005
R54 vdd.n444 vdd.n443 9.3005
R55 vdd.n446 vdd.n445 9.3005
R56 vdd.n452 vdd.n451 9.3005
R57 vdd.n455 vdd.n454 9.3005
R58 vdd.n465 vdd.n464 9.3005
R59 vdd.n468 vdd.n467 9.3005
R60 vdd.n470 vdd.n469 9.3005
R61 vdd.n407 vdd.n406 9.3005
R62 vdd.n417 vdd.n416 9.3005
R63 vdd.n419 vdd.n418 9.3005
R64 vdd.n318 vdd.n317 9.3005
R65 vdd.n324 vdd.n323 9.3005
R66 vdd.n330 vdd.n329 9.3005
R67 vdd.n336 vdd.n335 9.3005
R68 vdd.n342 vdd.n341 9.3005
R69 vdd.n356 vdd.n355 9.3005
R70 vdd.n362 vdd.n361 9.3005
R71 vdd.n368 vdd.n367 9.3005
R72 vdd.n374 vdd.n373 9.3005
R73 vdd.n380 vdd.n379 9.3005
R74 vdd.n385 vdd.n384 9.3005
R75 vdd.n239 vdd.n238 9.3005
R76 vdd.n245 vdd.n244 9.3005
R77 vdd.n251 vdd.n250 9.3005
R78 vdd.n257 vdd.n256 9.3005
R79 vdd.n263 vdd.n262 9.3005
R80 vdd.n277 vdd.n276 9.3005
R81 vdd.n283 vdd.n282 9.3005
R82 vdd.n289 vdd.n288 9.3005
R83 vdd.n295 vdd.n294 9.3005
R84 vdd.n301 vdd.n300 9.3005
R85 vdd.n306 vdd.n305 9.3005
R86 vdd.n160 vdd.n159 9.3005
R87 vdd.n166 vdd.n165 9.3005
R88 vdd.n172 vdd.n171 9.3005
R89 vdd.n178 vdd.n177 9.3005
R90 vdd.n184 vdd.n183 9.3005
R91 vdd.n198 vdd.n197 9.3005
R92 vdd.n204 vdd.n203 9.3005
R93 vdd.n210 vdd.n209 9.3005
R94 vdd.n216 vdd.n215 9.3005
R95 vdd.n222 vdd.n221 9.3005
R96 vdd.n227 vdd.n226 9.3005
R97 vdd.n81 vdd.n80 9.3005
R98 vdd.n87 vdd.n86 9.3005
R99 vdd.n93 vdd.n92 9.3005
R100 vdd.n99 vdd.n98 9.3005
R101 vdd.n105 vdd.n104 9.3005
R102 vdd.n119 vdd.n118 9.3005
R103 vdd.n125 vdd.n124 9.3005
R104 vdd.n131 vdd.n130 9.3005
R105 vdd.n137 vdd.n136 9.3005
R106 vdd.n143 vdd.n142 9.3005
R107 vdd.n148 vdd.n147 9.3005
R108 vdd.n85 vdd.n84 9.3005
R109 vdd.n91 vdd.n90 9.3005
R110 vdd.n97 vdd.n96 9.3005
R111 vdd.n103 vdd.n102 9.3005
R112 vdd.n109 vdd.n108 9.3005
R113 vdd.n123 vdd.n122 9.3005
R114 vdd.n129 vdd.n128 9.3005
R115 vdd.n135 vdd.n134 9.3005
R116 vdd.n141 vdd.n140 9.3005
R117 vdd.n146 vdd.n145 9.3005
R118 vdd.n164 vdd.n163 9.3005
R119 vdd.n170 vdd.n169 9.3005
R120 vdd.n176 vdd.n175 9.3005
R121 vdd.n182 vdd.n181 9.3005
R122 vdd.n188 vdd.n187 9.3005
R123 vdd.n202 vdd.n201 9.3005
R124 vdd.n208 vdd.n207 9.3005
R125 vdd.n214 vdd.n213 9.3005
R126 vdd.n220 vdd.n219 9.3005
R127 vdd.n225 vdd.n224 9.3005
R128 vdd.n243 vdd.n242 9.3005
R129 vdd.n249 vdd.n248 9.3005
R130 vdd.n255 vdd.n254 9.3005
R131 vdd.n261 vdd.n260 9.3005
R132 vdd.n267 vdd.n266 9.3005
R133 vdd.n281 vdd.n280 9.3005
R134 vdd.n287 vdd.n286 9.3005
R135 vdd.n293 vdd.n292 9.3005
R136 vdd.n299 vdd.n298 9.3005
R137 vdd.n304 vdd.n303 9.3005
R138 vdd.n322 vdd.n321 9.3005
R139 vdd.n328 vdd.n327 9.3005
R140 vdd.n334 vdd.n333 9.3005
R141 vdd.n340 vdd.n339 9.3005
R142 vdd.n346 vdd.n345 9.3005
R143 vdd.n360 vdd.n359 9.3005
R144 vdd.n366 vdd.n365 9.3005
R145 vdd.n372 vdd.n371 9.3005
R146 vdd.n378 vdd.n377 9.3005
R147 vdd.n383 vdd.n382 9.3005
R148 vdd.n13 vdd.n12 9.3005
R149 vdd.n16 vdd.n15 9.3005
R150 vdd.n18 vdd.n17 9.3005
R151 vdd.n21 vdd.n20 9.3005
R152 vdd.n23 vdd.n22 9.3005
R153 vdd.n26 vdd.n25 9.3005
R154 vdd.n28 vdd.n27 9.3005
R155 vdd.n31 vdd.n30 9.3005
R156 vdd.n33 vdd.n32 9.3005
R157 vdd.n36 vdd.n35 9.3005
R158 vdd.n45 vdd.n44 9.3005
R159 vdd.n48 vdd.n47 9.3005
R160 vdd.n50 vdd.n49 9.3005
R161 vdd.n53 vdd.n52 9.3005
R162 vdd.n55 vdd.n54 9.3005
R163 vdd.n58 vdd.n57 9.3005
R164 vdd.n60 vdd.n59 9.3005
R165 vdd.n63 vdd.n62 9.3005
R166 vdd.n65 vdd.n64 9.3005
R167 vdd.n68 vdd.n67 9.3005
R168 vdd.n70 vdd.n69 9.3005
R169 vdd.n454 vdd.n453 8.85536
R170 vdd.n431 vdd.n430 8.85536
R171 vdd.n428 vdd.n427 8.85536
R172 vdd.n435 vdd.n434 8.85536
R173 vdd.n443 vdd.n442 8.85536
R174 vdd.n459 vdd.n458 8.85536
R175 vdd.n467 vdd.n466 8.85536
R176 vdd.n449 vdd.n448 8.85536
R177 vdd.n404 vdd.n403 8.85536
R178 vdd.n401 vdd.n400 8.85536
R179 vdd.n411 vdd.n410 8.85536
R180 vdd.n416 vdd.n415 8.85536
R181 vdd.n78 vdd.n77 8.85536
R182 vdd.n84 vdd.n83 8.85536
R183 vdd.n90 vdd.n89 8.85536
R184 vdd.n96 vdd.n95 8.85536
R185 vdd.n102 vdd.n101 8.85536
R186 vdd.n108 vdd.n107 8.85536
R187 vdd.n113 vdd.n112 8.85536
R188 vdd.n122 vdd.n121 8.85536
R189 vdd.n128 vdd.n127 8.85536
R190 vdd.n134 vdd.n133 8.85536
R191 vdd.n140 vdd.n139 8.85536
R192 vdd.n145 vdd.n144 8.85536
R193 vdd.n157 vdd.n156 8.85536
R194 vdd.n163 vdd.n162 8.85536
R195 vdd.n169 vdd.n168 8.85536
R196 vdd.n175 vdd.n174 8.85536
R197 vdd.n181 vdd.n180 8.85536
R198 vdd.n187 vdd.n186 8.85536
R199 vdd.n192 vdd.n191 8.85536
R200 vdd.n201 vdd.n200 8.85536
R201 vdd.n207 vdd.n206 8.85536
R202 vdd.n213 vdd.n212 8.85536
R203 vdd.n219 vdd.n218 8.85536
R204 vdd.n224 vdd.n223 8.85536
R205 vdd.n236 vdd.n235 8.85536
R206 vdd.n242 vdd.n241 8.85536
R207 vdd.n248 vdd.n247 8.85536
R208 vdd.n254 vdd.n253 8.85536
R209 vdd.n260 vdd.n259 8.85536
R210 vdd.n266 vdd.n265 8.85536
R211 vdd.n271 vdd.n270 8.85536
R212 vdd.n280 vdd.n279 8.85536
R213 vdd.n286 vdd.n285 8.85536
R214 vdd.n292 vdd.n291 8.85536
R215 vdd.n298 vdd.n297 8.85536
R216 vdd.n303 vdd.n302 8.85536
R217 vdd.n315 vdd.n314 8.85536
R218 vdd.n321 vdd.n320 8.85536
R219 vdd.n327 vdd.n326 8.85536
R220 vdd.n333 vdd.n332 8.85536
R221 vdd.n339 vdd.n338 8.85536
R222 vdd.n345 vdd.n344 8.85536
R223 vdd.n350 vdd.n349 8.85536
R224 vdd.n359 vdd.n358 8.85536
R225 vdd.n365 vdd.n364 8.85536
R226 vdd.n371 vdd.n370 8.85536
R227 vdd.n377 vdd.n376 8.85536
R228 vdd.n382 vdd.n381 8.85536
R229 vdd.n10 vdd.n9 8.85536
R230 vdd.n15 vdd.n14 8.85536
R231 vdd.n20 vdd.n19 8.85536
R232 vdd.n25 vdd.n24 8.85536
R233 vdd.n30 vdd.n29 8.85536
R234 vdd.n35 vdd.n34 8.85536
R235 vdd.n39 vdd.n38 8.85536
R236 vdd.n47 vdd.n46 8.85536
R237 vdd.n52 vdd.n51 8.85536
R238 vdd.n57 vdd.n56 8.85536
R239 vdd.n62 vdd.n61 8.85536
R240 vdd.n67 vdd.n66 8.85536
R241 vdd.n352 vdd.n350 7.90638
R242 vdd.n273 vdd.n271 7.90638
R243 vdd.n194 vdd.n192 7.90638
R244 vdd.n115 vdd.n113 7.90638
R245 vdd.n41 vdd.n39 7.90638
R246 vdd.n403 vdd.n402 7.77593
R247 vdd.n458 vdd.n457 7.46309
R248 vdd.n430 vdd.n429 7.46309
R249 vdd.n461 vdd.n459 7.15344
R250 vdd.n437 vdd.n435 7.15344
R251 vdd.n412 vdd.n411 7.15344
R252 vdd.n471 vdd.n424 6.2098
R253 vdd.n447 vdd.n426 6.19834
R254 vdd.n450 vdd.n449 5.95365
R255 vdd.n420 vdd.n399 5.94964
R256 vdd.n353 vdd.t1 5.71419
R257 vdd.n274 vdd.t33 5.71419
R258 vdd.n274 vdd.t5 5.71419
R259 vdd.n195 vdd.t11 5.71419
R260 vdd.n195 vdd.t3 5.71419
R261 vdd.n116 vdd.t9 5.71419
R262 vdd.n116 vdd.t31 5.71419
R263 vdd.n42 vdd.t7 5.71419
R264 vdd.n461 vdd.n460 5.64756
R265 vdd.n437 vdd.n436 5.64756
R266 vdd.n412 vdd.n409 5.64756
R267 vdd.n149 vdd.n74 5.64054
R268 vdd.n228 vdd.n153 5.64054
R269 vdd.n307 vdd.n232 5.64054
R270 vdd.n386 vdd.n311 5.63695
R271 vdd.n71 vdd.n1 5.63695
R272 vdd.n79 vdd.n78 5.57416
R273 vdd.n158 vdd.n157 5.57416
R274 vdd.n237 vdd.n236 5.57416
R275 vdd.n432 vdd.n431 5.57212
R276 vdd.n316 vdd.n315 5.57049
R277 vdd.n405 vdd.n404 5.57042
R278 vdd.n11 vdd.n10 5.57042
R279 vdd.n388 vdd.t21 5.43072
R280 vdd.n352 vdd.n351 4.89462
R281 vdd.n273 vdd.n272 4.89462
R282 vdd.n194 vdd.n193 4.89462
R283 vdd.n115 vdd.n114 4.89462
R284 vdd.n41 vdd.n40 4.89462
R285 vdd.n388 vdd.t24 4.35663
R286 vdd.n395 vdd.t27 4.3505
R287 vdd.n395 vdd.t26 4.3505
R288 vdd.n394 vdd.t25 4.3505
R289 vdd.n394 vdd.t28 4.3505
R290 vdd.n391 vdd.t29 4.3505
R291 vdd.n391 vdd.t23 4.3505
R292 vdd.n390 vdd.t22 4.3505
R293 vdd.n390 vdd.t20 4.3505
R294 vdd.n376 vdd.n375 3.6175
R295 vdd.n370 vdd.n369 3.6175
R296 vdd.n364 vdd.n363 3.6175
R297 vdd.n358 vdd.n357 3.6175
R298 vdd.n349 vdd.n348 3.6175
R299 vdd.n344 vdd.n343 3.6175
R300 vdd.n338 vdd.n337 3.6175
R301 vdd.n332 vdd.n331 3.6175
R302 vdd.n326 vdd.n325 3.6175
R303 vdd.n320 vdd.n319 3.6175
R304 vdd.n314 vdd.n313 3.44923
R305 vdd.n297 vdd.n296 3.05241
R306 vdd.n291 vdd.n290 3.05241
R307 vdd.n285 vdd.n284 3.05241
R308 vdd.n279 vdd.n278 3.05241
R309 vdd.n270 vdd.n269 3.05241
R310 vdd.n265 vdd.n264 3.05241
R311 vdd.n259 vdd.n258 3.05241
R312 vdd.n253 vdd.n252 3.05241
R313 vdd.n247 vdd.n246 3.05241
R314 vdd.n241 vdd.n240 3.05241
R315 vdd.n218 vdd.n217 3.05241
R316 vdd.n212 vdd.n211 3.05241
R317 vdd.n206 vdd.n205 3.05241
R318 vdd.n200 vdd.n199 3.05241
R319 vdd.n191 vdd.n190 3.05241
R320 vdd.n186 vdd.n185 3.05241
R321 vdd.n180 vdd.n179 3.05241
R322 vdd.n174 vdd.n173 3.05241
R323 vdd.n168 vdd.n167 3.05241
R324 vdd.n162 vdd.n161 3.05241
R325 vdd.n139 vdd.n138 3.05241
R326 vdd.n133 vdd.n132 3.05241
R327 vdd.n127 vdd.n126 3.05241
R328 vdd.n121 vdd.n120 3.05241
R329 vdd.n112 vdd.n111 3.05241
R330 vdd.n107 vdd.n106 3.05241
R331 vdd.n101 vdd.n100 3.05241
R332 vdd.n95 vdd.n94 3.05241
R333 vdd.n89 vdd.n88 3.05241
R334 vdd.n83 vdd.n82 3.05241
R335 vdd.n235 vdd.n234 2.91084
R336 vdd.n156 vdd.n155 2.91084
R337 vdd.n77 vdd.n76 2.91084
R338 vdd.n472 vdd.n471 1.66013
R339 vdd.n150 vdd.n71 1.51623
R340 vdd.n421 vdd.n420 1.44698
R341 vdd.n450 vdd.n447 1.27483
R342 vdd.n387 vdd.n386 1.24165
R343 vdd.n308 vdd.n307 1.2194
R344 vdd.n229 vdd.n228 1.2194
R345 vdd.n150 vdd.n149 1.2194
R346 vdd.n396 vdd.n395 1.08072
R347 vdd.n392 vdd.n391 1.08072
R348 vdd.n397 vdd.n396 1.06174
R349 vdd.n393 vdd.n392 1.06174
R350 vdd.n389 vdd.n388 1.06174
R351 vdd.n433 vdd.n432 0.779301
R352 vdd.n73 vdd.n72 0.729989
R353 vdd.n152 vdd.n151 0.729989
R354 vdd.n231 vdd.n230 0.729989
R355 vdd.n407 vdd.n405 0.720048
R356 vdd.n13 vdd.n11 0.720048
R357 vdd.n318 vdd.n316 0.719967
R358 vdd.n239 vdd.n237 0.701167
R359 vdd.n160 vdd.n158 0.701167
R360 vdd.n81 vdd.n79 0.701167
R361 vdd.n423 vdd.n422 0.697387
R362 vdd.n310 vdd.n309 0.58226
R363 vdd.n7 vdd.n6 0.555728
R364 vdd.n7 vdd.n5 0.555728
R365 vdd.n7 vdd.n4 0.555728
R366 vdd.n7 vdd.n3 0.555728
R367 vdd.n7 vdd.n2 0.555728
R368 vdd.n8 vdd.n7 0.555728
R369 vdd.n421 vdd.n397 0.460436
R370 vdd.n229 vdd.n150 0.284688
R371 vdd.n308 vdd.n229 0.284688
R372 vdd.n393 vdd.n389 0.284688
R373 vdd.n397 vdd.n393 0.284688
R374 vdd.n387 vdd.n308 0.274538
R375 vdd.n472 vdd.n421 0.253438
R376 vdd vdd.n472 0.160489
R377 vdd.n447 vdd.n446 0.115891
R378 vdd.n446 vdd.n444 0.0928913
R379 vdd.n444 vdd.n441 0.0928913
R380 vdd.n441 vdd.n439 0.0928913
R381 vdd.n389 vdd.n387 0.0560556
R382 vdd.n420 vdd.n419 0.0528522
R383 vdd.n439 vdd.n438 0.0521304
R384 vdd.n386 vdd.n385 0.0519458
R385 vdd.n71 vdd.n70 0.0519458
R386 vdd.n438 vdd.n433 0.0412609
R387 vdd.n419 vdd.n417 0.0359167
R388 vdd.n417 vdd.n414 0.0359167
R389 vdd.n408 vdd.n407 0.0359167
R390 vdd.n385 vdd.n383 0.0359167
R391 vdd.n383 vdd.n380 0.0359167
R392 vdd.n380 vdd.n378 0.0359167
R393 vdd.n378 vdd.n374 0.0359167
R394 vdd.n374 vdd.n372 0.0359167
R395 vdd.n372 vdd.n368 0.0359167
R396 vdd.n368 vdd.n366 0.0359167
R397 vdd.n366 vdd.n362 0.0359167
R398 vdd.n362 vdd.n360 0.0359167
R399 vdd.n360 vdd.n356 0.0359167
R400 vdd.n356 vdd.n354 0.0359167
R401 vdd.n347 vdd.n346 0.0359167
R402 vdd.n346 vdd.n342 0.0359167
R403 vdd.n342 vdd.n340 0.0359167
R404 vdd.n340 vdd.n336 0.0359167
R405 vdd.n336 vdd.n334 0.0359167
R406 vdd.n334 vdd.n330 0.0359167
R407 vdd.n330 vdd.n328 0.0359167
R408 vdd.n328 vdd.n324 0.0359167
R409 vdd.n324 vdd.n322 0.0359167
R410 vdd.n322 vdd.n318 0.0359167
R411 vdd.n70 vdd.n68 0.0359167
R412 vdd.n68 vdd.n65 0.0359167
R413 vdd.n65 vdd.n63 0.0359167
R414 vdd.n63 vdd.n60 0.0359167
R415 vdd.n60 vdd.n58 0.0359167
R416 vdd.n58 vdd.n55 0.0359167
R417 vdd.n55 vdd.n53 0.0359167
R418 vdd.n53 vdd.n50 0.0359167
R419 vdd.n50 vdd.n48 0.0359167
R420 vdd.n48 vdd.n45 0.0359167
R421 vdd.n45 vdd.n43 0.0359167
R422 vdd.n37 vdd.n36 0.0359167
R423 vdd.n36 vdd.n33 0.0359167
R424 vdd.n33 vdd.n31 0.0359167
R425 vdd.n31 vdd.n28 0.0359167
R426 vdd.n28 vdd.n26 0.0359167
R427 vdd.n26 vdd.n23 0.0359167
R428 vdd.n23 vdd.n21 0.0359167
R429 vdd.n21 vdd.n18 0.0359167
R430 vdd.n18 vdd.n16 0.0359167
R431 vdd.n16 vdd.n13 0.0359167
R432 vdd.n452 vdd.n450 0.0330804
R433 vdd.n307 vdd.n306 0.032519
R434 vdd.n228 vdd.n227 0.032519
R435 vdd.n149 vdd.n148 0.032519
R436 vdd.n471 vdd.n470 0.0282521
R437 vdd.n470 vdd.n468 0.0224072
R438 vdd.n468 vdd.n465 0.0224072
R439 vdd.n465 vdd.n463 0.0224072
R440 vdd.n456 vdd.n455 0.0224072
R441 vdd.n455 vdd.n452 0.0224072
R442 vdd.n306 vdd.n304 0.0224072
R443 vdd.n304 vdd.n301 0.0224072
R444 vdd.n301 vdd.n299 0.0224072
R445 vdd.n299 vdd.n295 0.0224072
R446 vdd.n295 vdd.n293 0.0224072
R447 vdd.n293 vdd.n289 0.0224072
R448 vdd.n289 vdd.n287 0.0224072
R449 vdd.n287 vdd.n283 0.0224072
R450 vdd.n283 vdd.n281 0.0224072
R451 vdd.n281 vdd.n277 0.0224072
R452 vdd.n277 vdd.n275 0.0224072
R453 vdd.n268 vdd.n267 0.0224072
R454 vdd.n267 vdd.n263 0.0224072
R455 vdd.n263 vdd.n261 0.0224072
R456 vdd.n261 vdd.n257 0.0224072
R457 vdd.n257 vdd.n255 0.0224072
R458 vdd.n255 vdd.n251 0.0224072
R459 vdd.n251 vdd.n249 0.0224072
R460 vdd.n249 vdd.n245 0.0224072
R461 vdd.n245 vdd.n243 0.0224072
R462 vdd.n243 vdd.n239 0.0224072
R463 vdd.n227 vdd.n225 0.0224072
R464 vdd.n225 vdd.n222 0.0224072
R465 vdd.n222 vdd.n220 0.0224072
R466 vdd.n220 vdd.n216 0.0224072
R467 vdd.n216 vdd.n214 0.0224072
R468 vdd.n214 vdd.n210 0.0224072
R469 vdd.n210 vdd.n208 0.0224072
R470 vdd.n208 vdd.n204 0.0224072
R471 vdd.n204 vdd.n202 0.0224072
R472 vdd.n202 vdd.n198 0.0224072
R473 vdd.n198 vdd.n196 0.0224072
R474 vdd.n189 vdd.n188 0.0224072
R475 vdd.n188 vdd.n184 0.0224072
R476 vdd.n184 vdd.n182 0.0224072
R477 vdd.n182 vdd.n178 0.0224072
R478 vdd.n178 vdd.n176 0.0224072
R479 vdd.n176 vdd.n172 0.0224072
R480 vdd.n172 vdd.n170 0.0224072
R481 vdd.n170 vdd.n166 0.0224072
R482 vdd.n166 vdd.n164 0.0224072
R483 vdd.n164 vdd.n160 0.0224072
R484 vdd.n148 vdd.n146 0.0224072
R485 vdd.n146 vdd.n143 0.0224072
R486 vdd.n143 vdd.n141 0.0224072
R487 vdd.n141 vdd.n137 0.0224072
R488 vdd.n137 vdd.n135 0.0224072
R489 vdd.n135 vdd.n131 0.0224072
R490 vdd.n131 vdd.n129 0.0224072
R491 vdd.n129 vdd.n125 0.0224072
R492 vdd.n125 vdd.n123 0.0224072
R493 vdd.n123 vdd.n119 0.0224072
R494 vdd.n119 vdd.n117 0.0224072
R495 vdd.n110 vdd.n109 0.0224072
R496 vdd.n109 vdd.n105 0.0224072
R497 vdd.n105 vdd.n103 0.0224072
R498 vdd.n103 vdd.n99 0.0224072
R499 vdd.n99 vdd.n97 0.0224072
R500 vdd.n97 vdd.n93 0.0224072
R501 vdd.n93 vdd.n91 0.0224072
R502 vdd.n91 vdd.n87 0.0224072
R503 vdd.n87 vdd.n85 0.0224072
R504 vdd.n85 vdd.n81 0.0224072
R505 vdd.n354 vdd.n353 0.022375
R506 vdd.n43 vdd.n42 0.022375
R507 vdd.n413 vdd.n408 0.0202917
R508 vdd.n414 vdd.n413 0.016125
R509 vdd.n353 vdd.n347 0.0140417
R510 vdd.n42 vdd.n37 0.0140417
R511 vdd.n275 vdd.n274 0.0140309
R512 vdd.n196 vdd.n195 0.0140309
R513 vdd.n117 vdd.n116 0.0140309
R514 vdd.n463 vdd.n462 0.0127423
R515 vdd.n462 vdd.n456 0.010165
R516 vdd.n274 vdd.n268 0.00887629
R517 vdd.n195 vdd.n189 0.00887629
R518 vdd.n116 vdd.n110 0.00887629
R519 vdd.n396 vdd.n394 0.00663027
R520 vdd.n392 vdd.n390 0.00663027
R521 vdd.n438 vdd.n437 0.00190952
R522 vdd.n462 vdd.n461 0.00190952
R523 vdd.n413 vdd.n412 0.00190952
R524 vdd.n353 vdd.n352 0.00101178
R525 vdd.n274 vdd.n273 0.00101178
R526 vdd.n195 vdd.n194 0.00101178
R527 vdd.n116 vdd.n115 0.00101178
R528 vdd.n42 vdd.n41 0.00101178
R529 a_n3070_n3662.n40 a_n3070_n3662.n39 924.163
R530 a_n3070_n3662.n21 a_n3070_n3662.t13 74.7268
R531 a_n3070_n3662.n20 a_n3070_n3662.t12 74.7268
R532 a_n3070_n3662.n15 a_n3070_n3662.t14 74.7268
R533 a_n3070_n3662.n9 a_n3070_n3662.t11 74.7268
R534 a_n3070_n3662.n39 a_n3070_n3662.n0 9.3005
R535 a_n3070_n3662.n39 a_n3070_n3662.n38 9.3005
R536 a_n3070_n3662.n4 a_n3070_n3662.n1 9.10459
R537 a_n3070_n3662.n29 a_n3070_n3662.t5 4.90173
R538 a_n3070_n3662.n27 a_n3070_n3662.t9 4.90173
R539 a_n3070_n3662.n29 a_n3070_n3662.t10 4.89983
R540 a_n3070_n3662.n25 a_n3070_n3662.t1 4.89851
R541 a_n3070_n3662.n30 a_n3070_n3662.t7 4.89618
R542 a_n3070_n3662.n27 a_n3070_n3662.t4 4.89618
R543 a_n3070_n3662.n30 a_n3070_n3662.t3 4.89261
R544 a_n3070_n3662.n25 a_n3070_n3662.t6 4.89261
R545 a_n3070_n3662.n33 a_n3070_n3662.t8 4.89261
R546 a_n3070_n3662.n34 a_n3070_n3662.t2 4.36209
R547 a_n3070_n3662.n4 a_n3070_n3662.n3 3.25237
R548 a_n3070_n3662.n24 a_n3070_n3662.n18 2.7562
R549 a_n3070_n3662.n26 a_n3070_n3662.n24 1.38031
R550 a_n3070_n3662.n38 a_n3070_n3662.n37 1.30881
R551 a_n3070_n3662.n35 a_n3070_n3662.n34 1.18909
R552 a_n3070_n3662.n31 a_n3070_n3662.n30 1.07805
R553 a_n3070_n3662.n32 a_n3070_n3662.n28 1.07502
R554 a_n3070_n3662.n34 a_n3070_n3662.n33 0.538235
R555 a_n3070_n3662.n28 a_n3070_n3662.n26 0.204827
R556 a_n3070_n3662.n32 a_n3070_n3662.n31 0.204827
R557 a_n3070_n3662.n24 a_n3070_n3662.n23 0.198505
R558 a_n3070_n3662.n20 a_n3070_n3662.n19 0.16407
R559 a_n3070_n3662.n11 a_n3070_n3662.n10 0.159776
R560 a_n3070_n3662.n38 a_n3070_n3662.n4 0.0526884
R561 a_n3070_n3662.n37 a_n3070_n3662.n36 0.0426677
R562 a_n3070_n3662.n37 a_n3070_n3662.n7 0.0318735
R563 a_n3070_n3662.n17 a_n3070_n3662.n12 0.0309137
R564 a_n3070_n3662.n17 a_n3070_n3662.n16 0.0295698
R565 a_n3070_n3662.n36 a_n3070_n3662.n35 0.016125
R566 a_n3070_n3662.n22 a_n3070_n3662.n20 0.010741
R567 a_n3070_n3662.n22 a_n3070_n3662.n21 0.0107071
R568 a_n3070_n3662.n14 a_n3070_n3662.n13 0.00784719
R569 a_n3070_n3662.n7 a_n3070_n3662.n6 0.00577108
R570 a_n3070_n3662.n12 a_n3070_n3662.n11 0.00498284
R571 a_n3070_n3662.n23 a_n3070_n3662.n22 0.0040583
R572 a_n3070_n3662.n26 a_n3070_n3662.n25 0.00352842
R573 a_n3070_n3662.n28 a_n3070_n3662.n27 0.00352842
R574 a_n3070_n3662.n31 a_n3070_n3662.n29 0.00352842
R575 a_n3070_n3662.n33 a_n3070_n3662.n32 0.00352842
R576 a_n3070_n3662.n6 a_n3070_n3662.n5 0.00263488
R577 a_n3070_n3662.n9 a_n3070_n3662.n8 0.00195349
R578 a_n3070_n3662.n16 a_n3070_n3662.n15 0.00195349
R579 a_n3070_n3662.n12 a_n3070_n3662.n9 0.001503
R580 a_n3070_n3662.n3 a_n3070_n3662.n2 0.00117383
R581 a_n3070_n3662.n18 a_n3070_n3662.n17 0.00102521
R582 a_n3070_n3662.n2 a_n3070_n3662.t0 0.00101765
R583 a_n3070_n3662.n15 a_n3070_n3662.n14 0.0010022
R584 vss.n850 vss.n849 20700.8
R585 vss.t21 vss.n874 2996.99
R586 vss.n851 vss.n850 677.112
R587 vss.n877 vss.t21 634.556
R588 vss.n1000 vss.t15 449.495
R589 vss.n1000 vss.t22 449.495
R590 vss.n501 vss.t26 432.243
R591 vss.n5 vss.t5 395.844
R592 vss.n92 vss.t24 395.844
R593 vss.t7 vss.t0 310.926
R594 vss.t6 vss.t13 310.926
R595 vss.n787 vss.t28 288.082
R596 vss.n850 vss.n848 268.063
R597 vss.n316 vss.t26 245.026
R598 vss.n730 vss.t28 245.026
R599 vss.t17 vss.n315 228.767
R600 vss.n92 vss.t2 199.881
R601 vss.n93 vss.t3 199.881
R602 vss.n759 vss.n758 147.734
R603 vss.n328 vss.n327 125.654
R604 vss.n2 vss.t1 111.046
R605 vss.n8 vss.t11 100.594
R606 vss.n2 vss.t4 95.3687
R607 vss.n6 vss.t7 84.9174
R608 vss.n90 vss.t9 84.9174
R609 vss.n96 vss.t6 84.9174
R610 vss.n688 vss.n687 56.545
R611 vss.n526 vss.n524 54.4508
R612 vss.n316 vss.t17 43.9796
R613 vss.n1002 vss.t23 40.6698
R614 vss.n999 vss.t16 40.6698
R615 vss.n668 vss.t20 31.4141
R616 vss.n339 vss.n338 26.1598
R617 vss.n533 vss.n530 21.2526
R618 vss.n98 vss.n97 17.3407
R619 vss.n4 vss.n3 17.3407
R620 vss.n588 vss.n587 17.3407
R621 vss.n885 vss.n882 14.9693
R622 vss.n7 vss.n5 14.0608
R623 vss.n94 vss.n93 13.3421
R624 vss.n185 vss.n181 13.0668
R625 vss.n9 vss.n8 12.794
R626 vss.n91 vss.n90 12.794
R627 vss.n94 vss.n92 12.794
R628 vss.n7 vss.n6 12.794
R629 vss.n744 vss.t19 10.4717
R630 vss.n237 vss.n236 9.3005
R631 vss.n231 vss.n230 9.3005
R632 vss.n225 vss.n224 9.3005
R633 vss.n219 vss.n218 9.3005
R634 vss.n213 vss.n212 9.3005
R635 vss.n199 vss.n198 9.3005
R636 vss.n193 vss.n192 9.3005
R637 vss.n187 vss.n186 9.3005
R638 vss.n303 vss.n302 9.3005
R639 vss.n297 vss.n296 9.3005
R640 vss.n291 vss.n290 9.3005
R641 vss.n285 vss.n284 9.3005
R642 vss.n279 vss.n278 9.3005
R643 vss.n265 vss.n264 9.3005
R644 vss.n259 vss.n258 9.3005
R645 vss.n253 vss.n252 9.3005
R646 vss.n247 vss.n246 9.3005
R647 vss.n682 vss.n681 9.3005
R648 vss.n694 vss.n693 9.3005
R649 vss.n667 vss.n666 9.3005
R650 vss.n686 vss.n685 9.3005
R651 vss.n680 vss.n679 9.3005
R652 vss.n674 vss.n673 9.3005
R653 vss.n729 vss.n728 9.3005
R654 vss.n735 vss.n734 9.3005
R655 vss.n748 vss.n736 9.3005
R656 vss.n871 vss.n867 9.3005
R657 vss.n996 vss.n995 9.3005
R658 vss.n990 vss.n989 9.3005
R659 vss.n984 vss.n983 9.3005
R660 vss.n978 vss.n977 9.3005
R661 vss.n972 vss.n971 9.3005
R662 vss.n958 vss.n957 9.3005
R663 vss.n952 vss.n951 9.3005
R664 vss.n946 vss.n945 9.3005
R665 vss.n941 vss.n940 9.3005
R666 vss.n935 vss.n934 9.3005
R667 vss.n930 vss.n929 9.3005
R668 vss.n924 vss.n923 9.3005
R669 vss.n918 vss.n917 9.3005
R670 vss.n912 vss.n911 9.3005
R671 vss.n898 vss.n897 9.3005
R672 vss.n892 vss.n891 9.3005
R673 vss.n887 vss.n886 9.3005
R674 vss.n646 vss.n645 9.3005
R675 vss.n640 vss.n639 9.3005
R676 vss.n634 vss.n633 9.3005
R677 vss.n628 vss.n627 9.3005
R678 vss.n622 vss.n621 9.3005
R679 vss.n608 vss.n607 9.3005
R680 vss.n602 vss.n601 9.3005
R681 vss.n596 vss.n595 9.3005
R682 vss.n591 vss.n590 9.3005
R683 vss.n584 vss.n583 9.3005
R684 vss.n579 vss.n578 9.3005
R685 vss.n573 vss.n572 9.3005
R686 vss.n567 vss.n566 9.3005
R687 vss.n561 vss.n560 9.3005
R688 vss.n547 vss.n546 9.3005
R689 vss.n541 vss.n540 9.3005
R690 vss.n535 vss.n534 9.3005
R691 vss.n577 vss.n576 9.3005
R692 vss.n571 vss.n570 9.3005
R693 vss.n565 vss.n564 9.3005
R694 vss.n551 vss.n550 9.3005
R695 vss.n545 vss.n544 9.3005
R696 vss.n539 vss.n538 9.3005
R697 vss.n928 vss.n927 9.3005
R698 vss.n922 vss.n921 9.3005
R699 vss.n916 vss.n915 9.3005
R700 vss.n902 vss.n901 9.3005
R701 vss.n896 vss.n895 9.3005
R702 vss.n890 vss.n889 9.3005
R703 vss.n86 vss.n85 9.3005
R704 vss.n80 vss.n79 9.3005
R705 vss.n74 vss.n73 9.3005
R706 vss.n68 vss.n67 9.3005
R707 vss.n62 vss.n61 9.3005
R708 vss.n56 vss.n55 9.3005
R709 vss.n42 vss.n41 9.3005
R710 vss.n36 vss.n35 9.3005
R711 vss.n30 vss.n29 9.3005
R712 vss.n24 vss.n23 9.3005
R713 vss.n18 vss.n17 9.3005
R714 vss.n13 vss.n12 9.3005
R715 vss.n174 vss.n173 9.3005
R716 vss.n168 vss.n167 9.3005
R717 vss.n162 vss.n161 9.3005
R718 vss.n156 vss.n155 9.3005
R719 vss.n150 vss.n149 9.3005
R720 vss.n144 vss.n143 9.3005
R721 vss.n130 vss.n129 9.3005
R722 vss.n124 vss.n123 9.3005
R723 vss.n118 vss.n117 9.3005
R724 vss.n112 vss.n111 9.3005
R725 vss.n106 vss.n105 9.3005
R726 vss.n101 vss.n100 9.3005
R727 vss.n172 vss.n171 9.3005
R728 vss.n166 vss.n165 9.3005
R729 vss.n160 vss.n159 9.3005
R730 vss.n154 vss.n153 9.3005
R731 vss.n148 vss.n147 9.3005
R732 vss.n142 vss.n141 9.3005
R733 vss.n128 vss.n127 9.3005
R734 vss.n122 vss.n121 9.3005
R735 vss.n116 vss.n115 9.3005
R736 vss.n110 vss.n109 9.3005
R737 vss.n104 vss.n103 9.3005
R738 vss.n84 vss.n83 9.3005
R739 vss.n78 vss.n77 9.3005
R740 vss.n72 vss.n71 9.3005
R741 vss.n66 vss.n65 9.3005
R742 vss.n60 vss.n59 9.3005
R743 vss.n54 vss.n53 9.3005
R744 vss.n40 vss.n39 9.3005
R745 vss.n34 vss.n33 9.3005
R746 vss.n28 vss.n27 9.3005
R747 vss.n22 vss.n21 9.3005
R748 vss.n16 vss.n15 9.3005
R749 vss.n301 vss.n300 9.3005
R750 vss.n295 vss.n294 9.3005
R751 vss.n289 vss.n288 9.3005
R752 vss.n283 vss.n282 9.3005
R753 vss.n269 vss.n268 9.3005
R754 vss.n263 vss.n262 9.3005
R755 vss.n257 vss.n256 9.3005
R756 vss.n251 vss.n250 9.3005
R757 vss.n235 vss.n234 9.3005
R758 vss.n229 vss.n228 9.3005
R759 vss.n223 vss.n222 9.3005
R760 vss.n217 vss.n216 9.3005
R761 vss.n203 vss.n202 9.3005
R762 vss.n197 vss.n196 9.3005
R763 vss.n191 vss.n190 9.3005
R764 vss.n321 vss.n320 9.3005
R765 vss.n314 vss.n313 9.3005
R766 vss.n384 vss.n383 9.3005
R767 vss.n390 vss.n389 9.3005
R768 vss.n336 vss.n335 9.3005
R769 vss.n403 vss.n391 9.3005
R770 vss.n521 vss.n489 9.3005
R771 vss.n994 vss.n993 9.3005
R772 vss.n988 vss.n987 9.3005
R773 vss.n982 vss.n981 9.3005
R774 vss.n976 vss.n975 9.3005
R775 vss.n962 vss.n961 9.3005
R776 vss.n956 vss.n955 9.3005
R777 vss.n950 vss.n949 9.3005
R778 vss.n944 vss.n943 9.3005
R779 vss.n388 vss.n387 9.3005
R780 vss.n319 vss.n318 9.3005
R781 vss.n644 vss.n643 9.3005
R782 vss.n638 vss.n637 9.3005
R783 vss.n632 vss.n631 9.3005
R784 vss.n626 vss.n625 9.3005