* NGSPICE file created from rectifier.ext - technology: sky130A

.subckt rectifier vinp vinn vrec vss
X0 w_13310_7310.t16 a_13470_7313.t12 a_13540_7410.t5 w_13310_7310.t15 sky130_fd_pr__pfet_01v8_lvt ad=0p pd=0u as=0p ps=0u w=5e+06u l=350000u
X1 a_730_7313.t6 a_800_7410.t13 w_n4828_7260.t26 vss sky130_fd_pr__nfet_01v8_lvt ad=0p pd=0u as=0p ps=0u w=5e+06u l=180000u
X2 vinp.t12 a_19910_7410.t10 sky130_fd_pr__cap_mim_m3_1 l=3e+07u w=3e+07u
X3 a_19910_7410.t3 a_19840_7313.t12 w_13310_7310.t3 vss sky130_fd_pr__nfet_01v8_lvt ad=0p pd=0u as=0p ps=0u w=5e+06u l=180000u
X4 vrec.t23 a_29168_7410.t13 a_29098_7313.t11 vrec.t22 sky130_fd_pr__pfet_01v8_lvt ad=0p pd=0u as=0p ps=0u w=5e+06u l=350000u
X5 a_29098_7313.t12 vinn.t0 sky130_fd_pr__cap_mim_m3_1 l=3e+07u w=3e+07u
X6 w_n4828_7260.t30 a_800_7410.t14 a_730_7313.t5 vss sky130_fd_pr__nfet_01v8_lvt ad=0p pd=0u as=0p ps=0u w=5e+06u l=180000u
X7 w_570_7310.t34 a_800_7410.t15 a_730_7313.t0 w_570_7310.t33 sky130_fd_pr__pfet_01v8_lvt ad=0p pd=0u as=0p ps=0u w=5e+06u l=350000u
X8 w_6940_7310.t19 a_13470_7313.t13 a_13540_7410.t8 vss sky130_fd_pr__nfet_01v8_lvt ad=0p pd=0u as=0p ps=0u w=5e+06u l=180000u
X9 w_570_7310.t17 a_730_7313.t12 a_800_7410.t6 w_570_7310.t16 sky130_fd_pr__pfet_01v8_lvt ad=0p pd=0u as=0p ps=0u w=5e+06u l=350000u
X10 w_570_7310.t32 a_800_7410.t16 a_730_7313.t7 w_570_7310.t31 sky130_fd_pr__pfet_01v8_lvt ad=0p pd=0u as=0p ps=0u w=5e+06u l=350000u
X11 a_7100_7313.t5 a_7170_7410.t13 w_6940_7310.t27 w_6940_7310.t26 sky130_fd_pr__pfet_01v8_lvt ad=0p pd=0u as=0p ps=0u w=5e+06u l=350000u
X12 vrec.t24 vss.t9 sky130_fd_pr__cap_mim_m3_1 l=3e+07u w=3e+07u
X13 vinp.t5 vinn.t17 w_n4828_7260.t11 w_n4828_7260.t10 sky130_fd_pr__pfet_01v8_lvt ad=0p pd=0u as=0p ps=0u w=5e+06u l=350000u
X14 a_7170_7410.t8 a_7100_7313.t12 w_6940_7310.t23 w_6940_7310.t22 sky130_fd_pr__pfet_01v8_lvt ad=0p pd=0u as=0p ps=0u w=5e+06u l=350000u
X15 w_n4828_7260.t28 a_800_7410.t17 a_730_7313.t4 vss sky130_fd_pr__nfet_01v8_lvt ad=0p pd=0u as=0p ps=0u w=5e+06u l=180000u
X16 vinp.t1 vinn.t18 w_n4828_7260.t3 w_n4828_7260.t2 sky130_fd_pr__pfet_01v8_lvt ad=0p pd=0u as=0p ps=0u w=5e+06u l=350000u
X17 vinn.t10 vinp.t13 w_n4828_7260.t35 w_n4828_7260.t34 sky130_fd_pr__pfet_01v8_lvt ad=0p pd=0u as=0p ps=0u w=5e+06u l=350000u
X18 a_730_7313.t8 a_800_7410.t18 w_570_7310.t30 w_570_7310.t29 sky130_fd_pr__pfet_01v8_lvt ad=0p pd=0u as=0p ps=0u w=5e+06u l=350000u
X19 a_800_7410.t7 a_730_7313.t13 w_570_7310.t15 w_570_7310.t14 sky130_fd_pr__pfet_01v8_lvt ad=0p pd=0u as=0p ps=0u w=5e+06u l=350000u
X20 w_6940_7310.t18 a_13470_7313.t14 a_13540_7410.t2 vss sky130_fd_pr__nfet_01v8_lvt ad=0p pd=0u as=0p ps=0u w=5e+06u l=180000u
X21 w_n4828_7260.t17 vinp.t14 vinn.t9 w_n4828_7260.t16 sky130_fd_pr__pfet_01v8_lvt ad=0p pd=0u as=0p ps=0u w=5e+06u l=350000u
X22 a_800_7410.t3 a_730_7313.t14 w_570_7310.t13 w_570_7310.t12 sky130_fd_pr__pfet_01v8_lvt ad=0p pd=0u as=0p ps=0u w=5e+06u l=350000u
X23 a_13470_7313.t10 a_13540_7410.t13 w_13310_7310.t35 w_13310_7310.t34 sky130_fd_pr__pfet_01v8_lvt ad=0p pd=0u as=0p ps=0u w=5e+06u l=350000u
X24 a_19840_7313.t3 a_19910_7410.t13 w_19680_7310.t17 w_19680_7310.t16 sky130_fd_pr__pfet_01v8_lvt ad=0p pd=0u as=0p ps=0u w=5e+06u l=350000u
X25 a_19910_7410.t2 a_19840_7313.t13 w_19680_7310.t29 w_19680_7310.t28 sky130_fd_pr__pfet_01v8_lvt ad=0p pd=0u as=0p ps=0u w=5e+06u l=350000u
X26 vss.t1 vinp.t15 vinn.t16 vss sky130_fd_pr__nfet_01v8_lvt ad=0p pd=0u as=0p ps=0u w=5e+06u l=180000u
X27 a_19840_7313.t10 a_19910_7410.t14 w_13310_7310.t1 vss sky130_fd_pr__nfet_01v8_lvt ad=0p pd=0u as=0p ps=0u w=5e+06u l=180000u
X28 a_29098_7313.t8 a_29168_7410.t14 vrec.t21 vrec.t20 sky130_fd_pr__pfet_01v8_lvt ad=0p pd=0u as=0p ps=0u w=5e+06u l=350000u
X29 a_29168_7410.t12 a_29098_7313.t13 vrec.t11 vrec.t10 sky130_fd_pr__pfet_01v8_lvt ad=0p pd=0u as=0p ps=0u w=5e+06u l=350000u
X30 w_6940_7310.t11 a_7100_7313.t13 a_7170_7410.t4 w_6940_7310.t10 sky130_fd_pr__pfet_01v8_lvt ad=0p pd=0u as=0p ps=0u w=5e+06u l=350000u
X31 w_n4828_7260.t18 a_730_7313.t15 a_800_7410.t8 vss sky130_fd_pr__nfet_01v8_lvt ad=0p pd=0u as=0p ps=0u w=5e+06u l=180000u
X32 vrec.t25 vss.t8 sky130_fd_pr__cap_mim_m3_1 l=3e+07u w=3e+07u
X33 w_13310_7310.t18 a_19910_7410.t15 a_19840_7313.t9 vss sky130_fd_pr__nfet_01v8_lvt ad=0p pd=0u as=0p ps=0u w=5e+06u l=180000u
X34 w_570_7310.t11 a_730_7313.t16 a_800_7410.t0 w_570_7310.t10 sky130_fd_pr__pfet_01v8_lvt ad=0p pd=0u as=0p ps=0u w=5e+06u l=350000u
X35 a_7170_7410.t10 a_7100_7313.t14 w_570_7310.t19 vss sky130_fd_pr__nfet_01v8_lvt ad=0p pd=0u as=0p ps=0u w=5e+06u l=180000u
X36 vss.t6 vinn.t19 vinp.t10 vss sky130_fd_pr__nfet_01v8_lvt ad=0p pd=0u as=0p ps=0u w=5e+06u l=180000u
X37 a_13540_7410.t4 a_13470_7313.t15 w_13310_7310.t14 w_13310_7310.t13 sky130_fd_pr__pfet_01v8_lvt ad=0p pd=0u as=0p ps=0u w=5e+06u l=350000u
X38 a_7170_7410.t3 a_7100_7313.t15 w_570_7310.t2 vss sky130_fd_pr__nfet_01v8_lvt ad=0p pd=0u as=0p ps=0u w=5e+06u l=180000u
X39 vss.t5 vinn.t20 vinp.t9 vss sky130_fd_pr__nfet_01v8_lvt ad=0p pd=0u as=0p ps=0u w=5e+06u l=180000u
X40 vrec.t9 a_29098_7313.t14 a_29168_7410.t1 vrec.t8 sky130_fd_pr__pfet_01v8_lvt ad=0p pd=0u as=0p ps=0u w=5e+06u l=350000u
X41 a_19910_7410.t12 a_19840_7313.t14 w_19680_7310.t27 w_19680_7310.t26 sky130_fd_pr__pfet_01v8_lvt ad=0p pd=0u as=0p ps=0u w=5e+06u l=350000u
X42 vrec.t19 a_29168_7410.t15 a_29098_7313.t7 vrec.t18 sky130_fd_pr__pfet_01v8_lvt ad=0p pd=0u as=0p ps=0u w=5e+06u l=350000u
X43 a_7170_7410.t0 a_7100_7313.t16 w_570_7310.t1 vss sky130_fd_pr__nfet_01v8_lvt ad=0p pd=0u as=0p ps=0u w=5e+06u l=180000u
X44 a_19910_7410.t9 a_19840_7313.t15 w_13310_7310.t21 vss sky130_fd_pr__nfet_01v8_lvt ad=0p pd=0u as=0p ps=0u w=5e+06u l=180000u
X45 vss.t3 vinn.t21 vinp.t6 vss sky130_fd_pr__nfet_01v8_lvt ad=0p pd=0u as=0p ps=0u w=5e+06u l=180000u
X46 w_n4828_7260.t7 vinp.t16 vinn.t8 w_n4828_7260.t6 sky130_fd_pr__pfet_01v8_lvt ad=0p pd=0u as=0p ps=0u w=5e+06u l=350000u
X47 w_n4828_7260.t9 vinn.t22 vinp.t2 w_n4828_7260.t8 sky130_fd_pr__pfet_01v8_lvt ad=0p pd=0u as=0p ps=0u w=5e+06u l=350000u
X48 w_13310_7310.t2 a_19840_7313.t16 a_19910_7410.t1 vss sky130_fd_pr__nfet_01v8_lvt ad=0p pd=0u as=0p ps=0u w=5e+06u l=180000u
X49 vinp.t4 vinn.t23 vss.t2 vss sky130_fd_pr__nfet_01v8_lvt ad=0p pd=0u as=0p ps=0u w=5e+06u l=180000u
X50 a_730_7313.t9 a_800_7410.t19 w_570_7310.t28 w_570_7310.t27 sky130_fd_pr__pfet_01v8_lvt ad=0p pd=0u as=0p ps=0u w=5e+06u l=350000u
X51 a_29098_7313.t4 a_29168_7410.t16 w_19680_7310.t35 vss sky130_fd_pr__nfet_01v8_lvt ad=0p pd=0u as=0p ps=0u w=5e+06u l=180000u
X52 a_19910_7410.t7 a_19840_7313.t17 w_13310_7310.t19 vss sky130_fd_pr__nfet_01v8_lvt ad=0p pd=0u as=0p ps=0u w=5e+06u l=180000u
X53 a_29168_7410.t6 a_29098_7313.t15 w_19680_7310.t5 vss sky130_fd_pr__nfet_01v8_lvt ad=0p pd=0u as=0p ps=0u w=5e+06u l=180000u
X54 w_n4828_7260.t23 vinn.t24 vinp.t11 w_n4828_7260.t22 sky130_fd_pr__pfet_01v8_lvt ad=0p pd=0u as=0p ps=0u w=5e+06u l=350000u
X55 w_13310_7310.t33 a_13540_7410.t14 a_13470_7313.t11 w_13310_7310.t32 sky130_fd_pr__pfet_01v8_lvt ad=0p pd=0u as=0p ps=0u w=5e+06u l=350000u
X56 w_13310_7310.t12 a_13470_7313.t16 a_13540_7410.t3 w_13310_7310.t11 sky130_fd_pr__pfet_01v8_lvt ad=0p pd=0u as=0p ps=0u w=5e+06u l=350000u
X57 a_7100_7313.t11 a_7170_7410.t14 w_570_7310.t20 vss sky130_fd_pr__nfet_01v8_lvt ad=0p pd=0u as=0p ps=0u w=5e+06u l=180000u
X58 a_730_7313.t17 vinn.t2 sky130_fd_pr__cap_mim_m3_1 l=3e+07u w=3e+07u
X59 w_13310_7310.t17 a_19840_7313.t18 a_19910_7410.t4 vss sky130_fd_pr__nfet_01v8_lvt ad=0p pd=0u as=0p ps=0u w=5e+06u l=180000u
X60 w_19680_7310.t25 a_19840_7313.t19 a_19910_7410.t5 w_19680_7310.t24 sky130_fd_pr__pfet_01v8_lvt ad=0p pd=0u as=0p ps=0u w=5e+06u l=350000u
X61 a_19840_7313.t1 a_19910_7410.t16 w_19680_7310.t15 w_19680_7310.t14 sky130_fd_pr__pfet_01v8_lvt ad=0p pd=0u as=0p ps=0u w=5e+06u l=350000u
X62 a_7100_7313.t10 a_7170_7410.t15 w_570_7310.t22 vss sky130_fd_pr__nfet_01v8_lvt ad=0p pd=0u as=0p ps=0u w=5e+06u l=180000u
X63 vss.t13 vinp.t17 vinn.t15 vss sky130_fd_pr__nfet_01v8_lvt ad=0p pd=0u as=0p ps=0u w=5e+06u l=180000u
X64 vinn.t14 vinp.t18 vss.t7 vss sky130_fd_pr__nfet_01v8_lvt ad=0p pd=0u as=0p ps=0u w=5e+06u l=180000u
X65 vinp.t19 a_29168_7410.t10 sky130_fd_pr__cap_mim_m3_1 l=3e+07u w=3e+07u
X66 a_7100_7313.t9 a_7170_7410.t16 w_570_7310.t0 vss sky130_fd_pr__nfet_01v8_lvt ad=0p pd=0u as=0p ps=0u w=5e+06u l=180000u
X67 vss.t11 vinp.t20 vinn.t13 vss sky130_fd_pr__nfet_01v8_lvt ad=0p pd=0u as=0p ps=0u w=5e+06u l=180000u
X68 a_13470_7313.t17 vinn.t1 sky130_fd_pr__cap_mim_m3_1 l=3e+07u w=3e+07u
X69 w_570_7310.t35 a_7170_7410.t17 a_7100_7313.t8 vss sky130_fd_pr__nfet_01v8_lvt ad=0p pd=0u as=0p ps=0u w=5e+06u l=180000u
X70 vinn.t12 vinp.t21 vss.t10 vss sky130_fd_pr__nfet_01v8_lvt ad=0p pd=0u as=0p ps=0u w=5e+06u l=180000u
X71 w_6940_7310.t13 a_7170_7410.t18 a_7100_7313.t4 w_6940_7310.t12 sky130_fd_pr__pfet_01v8_lvt ad=0p pd=0u as=0p ps=0u w=5e+06u l=350000u
X72 w_6940_7310.t3 a_7100_7313.t17 a_7170_7410.t2 w_6940_7310.t2 sky130_fd_pr__pfet_01v8_lvt ad=0p pd=0u as=0p ps=0u w=5e+06u l=350000u
X73 w_570_7310.t26 a_800_7410.t20 a_730_7313.t11 w_570_7310.t25 sky130_fd_pr__pfet_01v8_lvt ad=0p pd=0u as=0p ps=0u w=5e+06u l=350000u
X74 a_29168_7410.t5 a_29098_7313.t16 w_19680_7310.t4 vss sky130_fd_pr__nfet_01v8_lvt ad=0p pd=0u as=0p ps=0u w=5e+06u l=180000u
X75 a_19840_7313.t8 a_19910_7410.t17 w_13310_7310.t20 vss sky130_fd_pr__nfet_01v8_lvt ad=0p pd=0u as=0p ps=0u w=5e+06u l=180000u
X76 w_570_7310.t9 a_730_7313.t18 a_800_7410.t2 w_570_7310.t8 sky130_fd_pr__pfet_01v8_lvt ad=0p pd=0u as=0p ps=0u w=5e+06u l=350000u
X77 a_7170_7410.t7 a_7100_7313.t18 w_6940_7310.t21 w_6940_7310.t20 sky130_fd_pr__pfet_01v8_lvt ad=0p pd=0u as=0p ps=0u w=5e+06u l=350000u
X78 a_7100_7313.t3 a_7170_7410.t19 w_6940_7310.t7 w_6940_7310.t6 sky130_fd_pr__pfet_01v8_lvt ad=0p pd=0u as=0p ps=0u w=5e+06u l=350000u
X79 a_7100_7313.t19 vinn.t3 sky130_fd_pr__cap_mim_m3_1 l=3e+07u w=3e+07u
X80 a_29098_7313.t6 a_29168_7410.t17 w_19680_7310.t34 vss sky130_fd_pr__nfet_01v8_lvt ad=0p pd=0u as=0p ps=0u w=5e+06u l=180000u
X81 w_570_7310.t5 a_7170_7410.t20 a_7100_7313.t7 vss sky130_fd_pr__nfet_01v8_lvt ad=0p pd=0u as=0p ps=0u w=5e+06u l=180000u
X82 vinn.t11 vinp.t22 vss.t12 vss sky130_fd_pr__nfet_01v8_lvt ad=0p pd=0u as=0p ps=0u w=5e+06u l=180000u
X83 a_7170_7410.t11 a_7100_7313.t20 w_6940_7310.t25 w_6940_7310.t24 sky130_fd_pr__pfet_01v8_lvt ad=0p pd=0u as=0p ps=0u w=5e+06u l=350000u
X84 vinn.t7 vinp.t23 w_n4828_7260.t15 w_n4828_7260.t14 sky130_fd_pr__pfet_01v8_lvt ad=0p pd=0u as=0p ps=0u w=5e+06u l=350000u
X85 a_19840_7313.t7 a_19910_7410.t18 w_13310_7310.t23 vss sky130_fd_pr__nfet_01v8_lvt ad=0p pd=0u as=0p ps=0u w=5e+06u l=180000u
X86 w_13310_7310.t22 a_19910_7410.t19 a_19840_7313.t6 vss sky130_fd_pr__nfet_01v8_lvt ad=0p pd=0u as=0p ps=0u w=5e+06u l=180000u
X87 w_19680_7310.t13 a_19910_7410.t20 a_19840_7313.t2 w_19680_7310.t12 sky130_fd_pr__pfet_01v8_lvt ad=0p pd=0u as=0p ps=0u w=5e+06u l=350000u
X88 w_19680_7310.t23 a_19840_7313.t20 a_19910_7410.t8 w_19680_7310.t22 sky130_fd_pr__pfet_01v8_lvt ad=0p pd=0u as=0p ps=0u w=5e+06u l=350000u
X89 w_19680_7310.t11 a_19910_7410.t21 a_19840_7313.t0 w_19680_7310.t10 sky130_fd_pr__pfet_01v8_lvt ad=0p pd=0u as=0p ps=0u w=5e+06u l=350000u
X90 a_19840_7313.t11 a_19910_7410.t22 w_19680_7310.t9 w_19680_7310.t8 sky130_fd_pr__pfet_01v8_lvt ad=0p pd=0u as=0p ps=0u w=5e+06u l=350000u
X91 w_13310_7310.t4 a_19910_7410.t23 a_19840_7313.t5 vss sky130_fd_pr__nfet_01v8_lvt ad=0p pd=0u as=0p ps=0u w=5e+06u l=180000u
X92 a_13470_7313.t8 a_13540_7410.t15 w_13310_7310.t31 w_13310_7310.t30 sky130_fd_pr__pfet_01v8_lvt ad=0p pd=0u as=0p ps=0u w=5e+06u l=350000u
X93 a_19910_7410.t6 a_19840_7313.t21 w_19680_7310.t21 w_19680_7310.t20 sky130_fd_pr__pfet_01v8_lvt ad=0p pd=0u as=0p ps=0u w=5e+06u l=350000u
X94 a_29168_7410.t8 a_29098_7313.t17 w_19680_7310.t3 vss sky130_fd_pr__nfet_01v8_lvt ad=0p pd=0u as=0p ps=0u w=5e+06u l=180000u
X95 a_29098_7313.t3 a_29168_7410.t18 vrec.t17 vrec.t16 sky130_fd_pr__pfet_01v8_lvt ad=0p pd=0u as=0p ps=0u w=5e+06u l=350000u
X96 a_29098_7313.t2 a_29168_7410.t19 w_19680_7310.t33 vss sky130_fd_pr__nfet_01v8_lvt ad=0p pd=0u as=0p ps=0u w=5e+06u l=180000u
X97 vinp.t7 vinn.t25 vss.t4 vss sky130_fd_pr__nfet_01v8_lvt ad=0p pd=0u as=0p ps=0u w=5e+06u l=180000u
X98 vrec.t7 a_29098_7313.t18 a_29168_7410.t0 vrec.t6 sky130_fd_pr__pfet_01v8_lvt ad=0p pd=0u as=0p ps=0u w=5e+06u l=350000u
X99 w_19680_7310.t32 a_29168_7410.t20 a_29098_7313.t9 vss sky130_fd_pr__nfet_01v8_lvt ad=0p pd=0u as=0p ps=0u w=5e+06u l=180000u
X100 w_570_7310.t4 a_7100_7313.t21 a_7170_7410.t6 vss sky130_fd_pr__nfet_01v8_lvt ad=0p pd=0u as=0p ps=0u w=5e+06u l=180000u
X101 vinp.t3 vinn.t26 vss.t0 vss sky130_fd_pr__nfet_01v8_lvt ad=0p pd=0u as=0p ps=0u w=5e+06u l=180000u
X102 w_6940_7310.t1 a_7100_7313.t22 a_7170_7410.t1 w_6940_7310.t0 sky130_fd_pr__pfet_01v8_lvt ad=0p pd=0u as=0p ps=0u w=5e+06u l=350000u
X103 w_570_7310.t3 a_7100_7313.t23 a_7170_7410.t5 vss sky130_fd_pr__nfet_01v8_lvt ad=0p pd=0u as=0p ps=0u w=5e+06u l=180000u
X104 w_13310_7310.t0 a_19840_7313.t22 a_19910_7410.t0 vss sky130_fd_pr__nfet_01v8_lvt ad=0p pd=0u as=0p ps=0u w=5e+06u l=180000u
X105 a_800_7410.t12 a_730_7313.t19 w_n4828_7260.t25 vss sky130_fd_pr__nfet_01v8_lvt ad=0p pd=0u as=0p ps=0u w=5e+06u l=180000u
X106 w_13310_7310.t29 a_13540_7410.t16 a_13470_7313.t9 w_13310_7310.t28 sky130_fd_pr__pfet_01v8_lvt ad=0p pd=0u as=0p ps=0u w=5e+06u l=350000u
X107 w_19680_7310.t31 a_29168_7410.t21 a_29098_7313.t5 vss sky130_fd_pr__nfet_01v8_lvt ad=0p pd=0u as=0p ps=0u w=5e+06u l=180000u
X108 w_19680_7310.t2 a_29098_7313.t19 a_29168_7410.t4 vss sky130_fd_pr__nfet_01v8_lvt ad=0p pd=0u as=0p ps=0u w=5e+06u l=180000u
X109 a_29168_7410.t2 a_29098_7313.t20 vrec.t5 vrec.t4 sky130_fd_pr__pfet_01v8_lvt ad=0p pd=0u as=0p ps=0u w=5e+06u l=350000u
X110 a_19840_7313.t23 vinn.t4 sky130_fd_pr__cap_mim_m3_1 l=3e+07u w=3e+07u
X111 a_29098_7313.t0 a_29168_7410.t22 vrec.t15 vrec.t14 sky130_fd_pr__pfet_01v8_lvt ad=0p pd=0u as=0p ps=0u w=5e+06u l=350000u
X112 a_7100_7313.t2 a_7170_7410.t21 w_6940_7310.t5 w_6940_7310.t4 sky130_fd_pr__pfet_01v8_lvt ad=0p pd=0u as=0p ps=0u w=5e+06u l=350000u
X113 a_29168_7410.t9 a_29098_7313.t21 vrec.t3 vrec.t2 sky130_fd_pr__pfet_01v8_lvt ad=0p pd=0u as=0p ps=0u w=5e+06u l=350000u
X114 vinp.t0 vinn.t27 w_n4828_7260.t1 w_n4828_7260.t0 sky130_fd_pr__pfet_01v8_lvt ad=0p pd=0u as=0p ps=0u w=5e+06u l=350000u
X115 vinn.t6 vinp.t24 w_n4828_7260.t33 w_n4828_7260.t32 sky130_fd_pr__pfet_01v8_lvt ad=0p pd=0u as=0p ps=0u w=5e+06u l=350000u
X116 a_800_7410.t4 a_730_7313.t20 w_570_7310.t7 w_570_7310.t6 sky130_fd_pr__pfet_01v8_lvt ad=0p pd=0u as=0p ps=0u w=5e+06u l=350000u
X117 w_n4828_7260.t5 vinp.t25 vinn.t5 w_n4828_7260.t4 sky130_fd_pr__pfet_01v8_lvt ad=0p pd=0u as=0p ps=0u w=5e+06u l=350000u
X118 w_19680_7310.t1 a_29098_7313.t22 a_29168_7410.t11 vss sky130_fd_pr__nfet_01v8_lvt ad=0p pd=0u as=0p ps=0u w=5e+06u l=180000u
X119 a_730_7313.t3 a_800_7410.t21 w_n4828_7260.t31 vss sky130_fd_pr__nfet_01v8_lvt ad=0p pd=0u as=0p ps=0u w=5e+06u l=180000u
X120 w_570_7310.t21 a_7170_7410.t22 a_7100_7313.t6 vss sky130_fd_pr__nfet_01v8_lvt ad=0p pd=0u as=0p ps=0u w=5e+06u l=180000u
X121 a_730_7313.t2 a_800_7410.t22 w_n4828_7260.t29 vss sky130_fd_pr__nfet_01v8_lvt ad=0p pd=0u as=0p ps=0u w=5e+06u l=180000u
X122 vinp.t26 a_800_7410.t10 sky130_fd_pr__cap_mim_m3_1 l=3e+07u w=3e+07u
X123 a_13540_7410.t11 a_13470_7313.t18 w_6940_7310.t17 vss sky130_fd_pr__nfet_01v8_lvt ad=0p pd=0u as=0p ps=0u w=5e+06u l=180000u
X124 w_n4828_7260.t27 a_800_7410.t23 a_730_7313.t1 vss sky130_fd_pr__nfet_01v8_lvt ad=0p pd=0u as=0p ps=0u w=5e+06u l=180000u
X125 a_13540_7410.t10 a_13470_7313.t19 w_6940_7310.t16 vss sky130_fd_pr__nfet_01v8_lvt ad=0p pd=0u as=0p ps=0u w=5e+06u l=180000u
X126 w_6940_7310.t15 a_13470_7313.t20 a_13540_7410.t9 vss sky130_fd_pr__nfet_01v8_lvt ad=0p pd=0u as=0p ps=0u w=5e+06u l=180000u
X127 vrec.t1 a_29098_7313.t23 a_29168_7410.t7 vrec.t0 sky130_fd_pr__pfet_01v8_lvt ad=0p pd=0u as=0p ps=0u w=5e+06u l=350000u
X128 w_6940_7310.t29 a_7170_7410.t23 a_7100_7313.t1 w_6940_7310.t28 sky130_fd_pr__pfet_01v8_lvt ad=0p pd=0u as=0p ps=0u w=5e+06u l=350000u
X129 w_19680_7310.t0 a_29098_7313.t24 a_29168_7410.t3 vss sky130_fd_pr__nfet_01v8_lvt ad=0p pd=0u as=0p ps=0u w=5e+06u l=180000u
X130 a_13540_7410.t1 a_13470_7313.t21 w_6940_7310.t14 vss sky130_fd_pr__nfet_01v8_lvt ad=0p pd=0u as=0p ps=0u w=5e+06u l=180000u
X131 vinp.t27 a_13540_7410.t12 sky130_fd_pr__cap_mim_m3_1 l=3e+07u w=3e+07u
X132 w_19680_7310.t30 a_29168_7410.t23 a_29098_7313.t10 vss sky130_fd_pr__nfet_01v8_lvt ad=0p pd=0u as=0p ps=0u w=5e+06u l=180000u
X133 w_6940_7310.t9 a_7170_7410.t24 a_7100_7313.t0 w_6940_7310.t8 sky130_fd_pr__pfet_01v8_lvt ad=0p pd=0u as=0p ps=0u w=5e+06u l=350000u
X134 vinp.t28 a_7170_7410.t12 sky130_fd_pr__cap_mim_m3_1 l=3e+07u w=3e+07u
X135 a_13540_7410.t0 a_13470_7313.t22 w_13310_7310.t10 w_13310_7310.t9 sky130_fd_pr__pfet_01v8_lvt ad=0p pd=0u as=0p ps=0u w=5e+06u l=350000u
X136 a_13470_7313.t4 a_13540_7410.t17 w_6940_7310.t35 vss sky130_fd_pr__nfet_01v8_lvt ad=0p pd=0u as=0p ps=0u w=5e+06u l=180000u
X137 w_570_7310.t18 a_7100_7313.t24 a_7170_7410.t9 vss sky130_fd_pr__nfet_01v8_lvt ad=0p pd=0u as=0p ps=0u w=5e+06u l=180000u
X138 w_19680_7310.t7 a_19910_7410.t24 a_19840_7313.t4 w_19680_7310.t6 sky130_fd_pr__pfet_01v8_lvt ad=0p pd=0u as=0p ps=0u w=5e+06u l=350000u
X139 a_800_7410.t9 a_730_7313.t21 w_n4828_7260.t19 vss sky130_fd_pr__nfet_01v8_lvt ad=0p pd=0u as=0p ps=0u w=5e+06u l=180000u
X140 vrec.t13 a_29168_7410.t24 a_29098_7313.t1 vrec.t12 sky130_fd_pr__pfet_01v8_lvt ad=0p pd=0u as=0p ps=0u w=5e+06u l=350000u
X141 w_19680_7310.t19 a_19840_7313.t24 a_19910_7410.t11 w_19680_7310.t18 sky130_fd_pr__pfet_01v8_lvt ad=0p pd=0u as=0p ps=0u w=5e+06u l=350000u
X142 a_13470_7313.t5 a_13540_7410.t18 w_6940_7310.t34 vss sky130_fd_pr__nfet_01v8_lvt ad=0p pd=0u as=0p ps=0u w=5e+06u l=180000u
X143 a_13540_7410.t7 a_13470_7313.t23 w_13310_7310.t8 w_13310_7310.t7 sky130_fd_pr__pfet_01v8_lvt ad=0p pd=0u as=0p ps=0u w=5e+06u l=350000u
X144 w_6940_7310.t33 a_13540_7410.t19 a_13470_7313.t0 vss sky130_fd_pr__nfet_01v8_lvt ad=0p pd=0u as=0p ps=0u w=5e+06u l=180000u
X145 a_13470_7313.t1 a_13540_7410.t20 w_13310_7310.t27 w_13310_7310.t26 sky130_fd_pr__pfet_01v8_lvt ad=0p pd=0u as=0p ps=0u w=5e+06u l=350000u
X146 w_n4828_7260.t13 a_730_7313.t22 a_800_7410.t5 vss sky130_fd_pr__nfet_01v8_lvt ad=0p pd=0u as=0p ps=0u w=5e+06u l=180000u
X147 w_6940_7310.t32 a_13540_7410.t21 a_13470_7313.t2 vss sky130_fd_pr__nfet_01v8_lvt ad=0p pd=0u as=0p ps=0u w=5e+06u l=180000u
X148 a_13470_7313.t3 a_13540_7410.t22 w_6940_7310.t31 vss sky130_fd_pr__nfet_01v8_lvt ad=0p pd=0u as=0p ps=0u w=5e+06u l=180000u
X149 a_800_7410.t1 a_730_7313.t23 w_n4828_7260.t12 vss sky130_fd_pr__nfet_01v8_lvt ad=0p pd=0u as=0p ps=0u w=5e+06u l=180000u
X150 a_730_7313.t10 a_800_7410.t24 w_570_7310.t24 w_570_7310.t23 sky130_fd_pr__pfet_01v8_lvt ad=0p pd=0u as=0p ps=0u w=5e+06u l=350000u
X151 w_n4828_7260.t24 a_730_7313.t24 a_800_7410.t11 vss sky130_fd_pr__nfet_01v8_lvt ad=0p pd=0u as=0p ps=0u w=5e+06u l=180000u
X152 w_6940_7310.t30 a_13540_7410.t23 a_13470_7313.t6 vss sky130_fd_pr__nfet_01v8_lvt ad=0p pd=0u as=0p ps=0u w=5e+06u l=180000u
X153 w_n4828_7260.t21 vinn.t28 vinp.t8 w_n4828_7260.t20 sky130_fd_pr__pfet_01v8_lvt ad=0p pd=0u as=0p ps=0u w=5e+06u l=350000u
X154 w_13310_7310.t6 a_13470_7313.t24 a_13540_7410.t6 w_13310_7310.t5 sky130_fd_pr__pfet_01v8_lvt ad=0p pd=0u as=0p ps=0u w=5e+06u l=350000u
X155 w_13310_7310.t25 a_13540_7410.t24 a_13470_7313.t7 w_13310_7310.t24 sky130_fd_pr__pfet_01v8_lvt ad=0p pd=0u as=0p ps=0u w=5e+06u l=350000u
R0 a_13470_7313.n8 a_13470_7313.t19 708.034
R1 a_13470_7313.n7 a_13470_7313.t21 708.034
R2 a_13470_7313.n9 a_13470_7313.t18 708.034
R3 a_13470_7313.n8 a_13470_7313.t13 708.034
R4 a_13470_7313.n7 a_13470_7313.t14 708.034
R5 a_13470_7313.n9 a_13470_7313.t20 708.034
R6 a_13470_7313.n10 a_13470_7313.t23 388.664
R7 a_13470_7313.n0 a_13470_7313.t16 388.587
R8 a_13470_7313.n0 a_13470_7313.t15 388.587
R9 a_13470_7313.n6 a_13470_7313.t24 388.587
R10 a_13470_7313.n6 a_13470_7313.t22 388.587
R11 a_13470_7313.n10 a_13470_7313.t12 388.543
R12 a_13470_7313.n16 a_13470_7313.t9 5.713
R13 a_13470_7313.n16 a_13470_7313.t8 5.713
R14 a_13470_7313.n3 a_13470_7313.t7 5.713
R15 a_13470_7313.n3 a_13470_7313.t10 5.713
R16 a_13470_7313.n13 a_13470_7313.t11 5.713
R17 a_13470_7313.n13 a_13470_7313.t1 5.713
R18 a_13470_7313.n2 a_13470_7313.t2 3.48
R19 a_13470_7313.n2 a_13470_7313.t5 3.48
R20 a_13470_7313.n12 a_13470_7313.t6 3.48
R21 a_13470_7313.n12 a_13470_7313.t3 3.48
R22 a_13470_7313.t0 a_13470_7313.n18 3.48
R23 a_13470_7313.n18 a_13470_7313.t4 3.48
R24 a_13470_7313.t17 a_13470_7313.n1 2.556
R25 a_13470_7313.n1 a_13470_7313.n7 2.489
R26 a_13470_7313.n11 a_13470_7313.n9 2.478
R27 a_13470_7313.n0 a_13470_7313.n8 2.348
R28 a_13470_7313.n0 a_13470_7313.n11 0.848
R29 a_13470_7313.n1 a_13470_7313.n0 0.841
R30 a_13470_7313.n4 a_13470_7313.n2 0.701
R31 a_13470_7313.n14 a_13470_7313.n12 0.701
R32 a_13470_7313.n18 a_13470_7313.n17 0.701
R33 a_13470_7313.n14 a_13470_7313.n13 0.463
R34 a_13470_7313.n17 a_13470_7313.n16 0.463
R35 a_13470_7313.n4 a_13470_7313.n3 0.419
R36 a_13470_7313.t17 a_13470_7313.n14 0.141
R37 a_13470_7313.n15 a_13470_7313.t17 0.14
R38 a_13470_7313.n15 a_13470_7313.n5 0.135
R39 a_13470_7313.n17 a_13470_7313.n15 0.116
R40 a_13470_7313.n5 a_13470_7313.n4 0.112
R41 a_13470_7313.n11 a_13470_7313.n10 0.099
R42 a_13470_7313.n1 a_13470_7313.n6 0.077
R43 a_13540_7410.n7 a_13540_7410.t18 708.072
R44 a_13540_7410.n9 a_13540_7410.t17 708.056
R45 a_13540_7410.n11 a_13540_7410.t23 708.054
R46 a_13540_7410.n11 a_13540_7410.t22 708.054
R47 a_13540_7410.n9 a_13540_7410.t19 708.05
R48 a_13540_7410.n7 a_13540_7410.t21 708.038
R49 a_13540_7410.n6 a_13540_7410.t24 388.574
R50 a_13540_7410.n6 a_13540_7410.t13 388.524
R51 a_13540_7410.n12 a_13540_7410.t20 388.509
R52 a_13540_7410.n12 a_13540_7410.t14 388.509
R53 a_13540_7410.n10 a_13540_7410.t15 388.509
R54 a_13540_7410.n10 a_13540_7410.t16 388.509
R55 a_13540_7410.n13 a_13540_7410.t6 5.713
R56 a_13540_7410.n13 a_13540_7410.t0 5.713
R57 a_13540_7410.n5 a_13540_7410.t3 5.713
R58 a_13540_7410.n5 a_13540_7410.t4 5.713
R59 a_13540_7410.n3 a_13540_7410.t5 5.713
R60 a_13540_7410.n3 a_13540_7410.t7 5.713
R61 a_13540_7410.n4 a_13540_7410.t8 3.48
R62 a_13540_7410.n4 a_13540_7410.t10 3.48
R63 a_13540_7410.n2 a_13540_7410.t9 3.48
R64 a_13540_7410.n2 a_13540_7410.t11 3.48
R65 a_13540_7410.n14 a_13540_7410.t2 3.48
R66 a_13540_7410.t1 a_13540_7410.n14 3.48
R67 a_13540_7410.t12 a_13540_7410.n1 2.751
R68 a_13540_7410.n1 a_13540_7410.n11 2.272
R69 a_13540_7410.n8 a_13540_7410.n7 2.265
R70 a_13540_7410.n0 a_13540_7410.n9 2.178
R71 a_13540_7410.n14 a_13540_7410.n13 1.165
R72 a_13540_7410.n5 a_13540_7410.n4 1.164
R73 a_13540_7410.n3 a_13540_7410.n2 1.111
R74 a_13540_7410.n1 a_13540_7410.n0 0.841
R75 a_13540_7410.n0 a_13540_7410.n8 0.804
R76 a_13540_7410.n8 a_13540_7410.n6 0.328
R77 a_13540_7410.n1 a_13540_7410.n12 0.29
R78 a_13540_7410.t12 a_13540_7410.n3 0.2
R79 a_13540_7410.t12 a_13540_7410.n5 0.2
R80 a_13540_7410.n13 a_13540_7410.t12 0.2
R81 a_13540_7410.n0 a_13540_7410.n10 0.162
R82 w_13310_7310.n141 w_13310_7310.t24 112.822
R83 w_13310_7310.n185 w_13310_7310.t34 112.822
R84 w_13310_7310.n185 w_13310_7310.t5 112.822
R85 w_13310_7310.n261 w_13310_7310.t9 112.822
R86 w_13310_7310.n261 w_13310_7310.t28 112.822
R87 w_13310_7310.n379 w_13310_7310.t30 112.822
R88 w_13310_7310.n379 w_13310_7310.t11 112.822
R89 w_13310_7310.n455 w_13310_7310.t13 112.822
R90 w_13310_7310.n455 w_13310_7310.t32 112.822
R91 w_13310_7310.n0 w_13310_7310.t26 112.822
R92 w_13310_7310.n0 w_13310_7310.t15 112.822
R93 w_13310_7310.n45 w_13310_7310.t7 112.822
R94 w_13310_7310.n52 w_13310_7310.n49 20.699
R95 w_13310_7310.n40 w_13310_7310.n39 16.63
R96 w_13310_7310.n109 w_13310_7310.n108 16.607
R97 w_13310_7310.n423 w_13310_7310.n422 16.289
R98 w_13310_7310.n347 w_13310_7310.n346 16.289
R99 w_13310_7310.n260 w_13310_7310.n259 16.289
R100 w_13310_7310.n184 w_13310_7310.n183 16.289
R101 w_13310_7310.n500 w_13310_7310.n499 16.288
R102 w_13310_7310.n114 w_13310_7310.n110 12.641
R103 w_13310_7310.n8 w_13310_7310.n4 12.629
R104 w_13310_7310.n193 w_13310_7310.n189 12.629
R105 w_13310_7310.n269 w_13310_7310.n265 12.629
R106 w_13310_7310.n352 w_13310_7310.n348 12.629
R107 w_13310_7310.n428 w_13310_7310.n424 12.629
R108 w_13310_7310.n116 w_13310_7310.n115 9.3
R109 w_13310_7310.n122 w_13310_7310.n121 9.3
R110 w_13310_7310.n128 w_13310_7310.n127 9.3
R111 w_13310_7310.n134 w_13310_7310.n133 9.3
R112 w_13310_7310.n140 w_13310_7310.n139 9.3
R113 w_13310_7310.n152 w_13310_7310.n151 9.3
R114 w_13310_7310.n158 w_13310_7310.n157 9.3
R115 w_13310_7310.n164 w_13310_7310.n163 9.3
R116 w_13310_7310.n170 w_13310_7310.n169 9.3
R117 w_13310_7310.n176 w_13310_7310.n175 9.3
R118 w_13310_7310.n181 w_13310_7310.n180 9.3
R119 w_13310_7310.n195 w_13310_7310.n194 9.3
R120 w_13310_7310.n201 w_13310_7310.n200 9.3
R121 w_13310_7310.n207 w_13310_7310.n206 9.3
R122 w_13310_7310.n213 w_13310_7310.n212 9.3
R123 w_13310_7310.n219 w_13310_7310.n218 9.3
R124 w_13310_7310.n227 w_13310_7310.n226 9.3
R125 w_13310_7310.n233 w_13310_7310.n232 9.3
R126 w_13310_7310.n239 w_13310_7310.n238 9.3
R127 w_13310_7310.n245 w_13310_7310.n244 9.3
R128 w_13310_7310.n251 w_13310_7310.n250 9.3
R129 w_13310_7310.n256 w_13310_7310.n255 9.3
R130 w_13310_7310.n271 w_13310_7310.n270 9.3
R131 w_13310_7310.n277 w_13310_7310.n276 9.3
R132 w_13310_7310.n283 w_13310_7310.n282 9.3
R133 w_13310_7310.n289 w_13310_7310.n288 9.3
R134 w_13310_7310.n295 w_13310_7310.n294 9.3
R135 w_13310_7310.n303 w_13310_7310.n302 9.3
R136 w_13310_7310.n309 w_13310_7310.n308 9.3
R137 w_13310_7310.n315 w_13310_7310.n314 9.3
R138 w_13310_7310.n321 w_13310_7310.n320 9.3
R139 w_13310_7310.n327 w_13310_7310.n326 9.3
R140 w_13310_7310.n332 w_13310_7310.n331 9.3
R141 w_13310_7310.n354 w_13310_7310.n353 9.3
R142 w_13310_7310.n360 w_13310_7310.n359 9.3
R143 w_13310_7310.n366 w_13310_7310.n365 9.3
R144 w_13310_7310.n372 w_13310_7310.n371 9.3
R145 w_13310_7310.n378 w_13310_7310.n377 9.3
R146 w_13310_7310.n390 w_13310_7310.n389 9.3
R147 w_13310_7310.n396 w_13310_7310.n395 9.3
R148 w_13310_7310.n402 w_13310_7310.n401 9.3
R149 w_13310_7310.n408 w_13310_7310.n407 9.3
R150 w_13310_7310.n414 w_13310_7310.n413 9.3
R151 w_13310_7310.n419 w_13310_7310.n418 9.3
R152 w_13310_7310.n430 w_13310_7310.n429 9.3
R153 w_13310_7310.n436 w_13310_7310.n435 9.3
R154 w_13310_7310.n442 w_13310_7310.n441 9.3
R155 w_13310_7310.n448 w_13310_7310.n447 9.3
R156 w_13310_7310.n454 w_13310_7310.n453 9.3
R157 w_13310_7310.n466 w_13310_7310.n465 9.3
R158 w_13310_7310.n472 w_13310_7310.n471 9.3
R159 w_13310_7310.n478 w_13310_7310.n477 9.3
R160 w_13310_7310.n484 w_13310_7310.n483 9.3
R161 w_13310_7310.n490 w_13310_7310.n489 9.3
R162 w_13310_7310.n495 w_13310_7310.n494 9.3
R163 w_13310_7310.n434 w_13310_7310.n433 9.3
R164 w_13310_7310.n440 w_13310_7310.n439 9.3
R165 w_13310_7310.n446 w_13310_7310.n445 9.3
R166 w_13310_7310.n452 w_13310_7310.n451 9.3
R167 w_13310_7310.n470 w_13310_7310.n469 9.3
R168 w_13310_7310.n476 w_13310_7310.n475 9.3
R169 w_13310_7310.n482 w_13310_7310.n481 9.3
R170 w_13310_7310.n488 w_13310_7310.n487 9.3
R171 w_13310_7310.n493 w_13310_7310.n492 9.3
R172 w_13310_7310.n358 w_13310_7310.n357 9.3
R173 w_13310_7310.n364 w_13310_7310.n363 9.3
R174 w_13310_7310.n370 w_13310_7310.n369 9.3
R175 w_13310_7310.n376 w_13310_7310.n375 9.3
R176 w_13310_7310.n394 w_13310_7310.n393 9.3
R177 w_13310_7310.n400 w_13310_7310.n399 9.3
R178 w_13310_7310.n406 w_13310_7310.n405 9.3
R179 w_13310_7310.n412 w_13310_7310.n411 9.3
R180 w_13310_7310.n417 w_13310_7310.n416 9.3
R181 w_13310_7310.n275 w_13310_7310.n274 9.3
R182 w_13310_7310.n281 w_13310_7310.n280 9.3
R183 w_13310_7310.n287 w_13310_7310.n286 9.3
R184 w_13310_7310.n293 w_13310_7310.n292 9.3
R185 w_13310_7310.n307 w_13310_7310.n306 9.3
R186 w_13310_7310.n313 w_13310_7310.n312 9.3
R187 w_13310_7310.n319 w_13310_7310.n318 9.3
R188 w_13310_7310.n325 w_13310_7310.n324 9.3
R189 w_13310_7310.n330 w_13310_7310.n329 9.3
R190 w_13310_7310.n199 w_13310_7310.n198 9.3
R191 w_13310_7310.n205 w_13310_7310.n204 9.3
R192 w_13310_7310.n211 w_13310_7310.n210 9.3
R193 w_13310_7310.n217 w_13310_7310.n216 9.3
R194 w_13310_7310.n231 w_13310_7310.n230 9.3
R195 w_13310_7310.n237 w_13310_7310.n236 9.3
R196 w_13310_7310.n243 w_13310_7310.n242 9.3
R197 w_13310_7310.n249 w_13310_7310.n248 9.3
R198 w_13310_7310.n254 w_13310_7310.n253 9.3
R199 w_13310_7310.n120 w_13310_7310.n119 9.3
R200 w_13310_7310.n126 w_13310_7310.n125 9.3
R201 w_13310_7310.n132 w_13310_7310.n131 9.3
R202 w_13310_7310.n138 w_13310_7310.n137 9.3
R203 w_13310_7310.n156 w_13310_7310.n155 9.3
R204 w_13310_7310.n162 w_13310_7310.n161 9.3
R205 w_13310_7310.n168 w_13310_7310.n167 9.3
R206 w_13310_7310.n174 w_13310_7310.n173 9.3
R207 w_13310_7310.n179 w_13310_7310.n178 9.3
R208 w_13310_7310.n106 w_13310_7310.n105 9.3
R209 w_13310_7310.n54 w_13310_7310.n53 9.3
R210 w_13310_7310.n57 w_13310_7310.n56 9.3
R211 w_13310_7310.n59 w_13310_7310.n58 9.3
R212 w_13310_7310.n62 w_13310_7310.n61 9.3
R213 w_13310_7310.n64 w_13310_7310.n63 9.3
R214 w_13310_7310.n67 w_13310_7310.n66 9.3
R215 w_13310_7310.n69 w_13310_7310.n68 9.3
R216 w_13310_7310.n72 w_13310_7310.n71 9.3
R217 w_13310_7310.n74 w_13310_7310.n73 9.3
R218 w_13310_7310.n81 w_13310_7310.n80 9.3
R219 w_13310_7310.n84 w_13310_7310.n83 9.3
R220 w_13310_7310.n86 w_13310_7310.n85 9.3
R221 w_13310_7310.n89 w_13310_7310.n88 9.3
R222 w_13310_7310.n91 w_13310_7310.n90 9.3
R223 w_13310_7310.n94 w_13310_7310.n93 9.3
R224 w_13310_7310.n96 w_13310_7310.n95 9.3
R225 w_13310_7310.n99 w_13310_7310.n98 9.3
R226 w_13310_7310.n101 w_13310_7310.n100 9.3
R227 w_13310_7310.n104 w_13310_7310.n103 9.3
R228 w_13310_7310.n10 w_13310_7310.n9 9.3
R229 w_13310_7310.n14 w_13310_7310.n13 9.3
R230 w_13310_7310.n16 w_13310_7310.n15 9.3
R231 w_13310_7310.n20 w_13310_7310.n19 9.3
R232 w_13310_7310.n22 w_13310_7310.n21 9.3
R233 w_13310_7310.n26 w_13310_7310.n25 9.3
R234 w_13310_7310.n28 w_13310_7310.n27 9.3